 xtb: 6.7.1 (edcfbbe)
          04072507453D

 21 20  0     0  0            999 V2000
    2.2272   -0.6858   -0.8676 C   0  0  0  0  0  0  0  0  0  0  0  0
    1.1910   -0.2716    0.1750 C   0  0  0  0  0  0  0  0  0  0  0  0
    1.6844    0.9335    0.9799 C   0  0  0  0  0  0  0  0  0  0  0  0
    0.0001    0.0003   -0.5564 O   0  0  0  0  0  0  0  0  0  0  0  0
   -1.1912    0.2717    0.1743 C   0  0  0  0  0  0  0  0  0  0  0  0
   -2.2269    0.6855   -0.8689 C   0  0  0  0  0  0  0  0  0  0  0  0
   -1.6846   -0.9337    0.9790 C   0  0  0  0  0  0  0  0  0  0  0  0
    1.8432   -1.5139   -1.4564 H   0  0  0  0  0  0  0  0  0  0  0  0
    2.4258    0.1483   -1.5348 H   0  0  0  0  0  0  0  0  0  0  0  0
    3.1491   -0.9872   -0.3804 H   0  0  0  0  0  0  0  0  0  0  0  0
    1.0168   -1.1159    0.8602 H   0  0  0  0  0  0  0  0  0  0  0  0
    1.0124    1.1622    1.8034 H   0  0  0  0  0  0  0  0  0  0  0  0
    1.7556    1.8035    0.3315 H   0  0  0  0  0  0  0  0  0  0  0  0
    2.6657    0.7143    1.3895 H   0  0  0  0  0  0  0  0  0  0  0  0
   -1.0178    1.1161    0.8597 H   0  0  0  0  0  0  0  0  0  0  0  0
   -3.1501    0.9842   -0.3824 H   0  0  0  0  0  0  0  0  0  0  0  0
   -1.8439    1.5154   -1.4558 H   0  0  0  0  0  0  0  0  0  0  0  0
   -2.4228   -0.1479   -1.5377 H   0  0  0  0  0  0  0  0  0  0  0  0
   -1.7540   -1.8039    0.3307 H   0  0  0  0  0  0  0  0  0  0  0  0
   -2.6667   -0.7153    1.3870 H   0  0  0  0  0  0  0  0  0  0  0  0
   -1.0136   -1.1614    1.8036 H   0  0  0  0  0  0  0  0  0  0  0  0
  1  2  1  0  0  0  0
  2  3  1  0  0  0  0
  2  4  1  0  0  0  0
  4  5  1  0  0  0  0
  5  6  1  0  0  0  0
  5  7  1  0  0  0  0
  1  8  1  0  0  0  0
  1  9  1  0  0  0  0
  1 10  1  0  0  0  0
  2 11  1  0  0  0  0
  3 12  1  0  0  0  0
  3 13  1  0  0  0  0
  3 14  1  0  0  0  0
  5 15  1  0  0  0  0
  6 16  1  0  0  0  0
  6 17  1  0  0  0  0
  6 18  1  0  0  0  0
  7 19  1  0  0  0  0
  7 20  1  0  0  0  0
  7 21  1  0  0  0  0
M  END
