 xtb: 6.7.1 (edcfbbe)
          04112511553D

 24 24  0     0  0            999 V2000
   -3.3384    0.0508   -0.6444 C   0  0  0  0  0  0  0  0  0  0  0  0
   -2.1721    0.2787    0.3104 C   0  0  0  0  0  0  0  0  0  0  0  0
   -0.9146   -0.4554   -0.1510 C   0  0  0  0  0  0  0  0  0  0  0  0
    0.2756   -0.2511    0.7909 C   0  0  0  0  0  0  0  0  0  0  0  0
    1.4341   -1.1977    0.4634 C   0  0  0  0  0  0  0  0  0  0  0  0
    2.1459   -0.5399   -0.7218 C   0  0  0  0  0  0  0  0  0  0  0  0
    1.8937    0.9710   -0.5672 C   0  0  0  0  0  0  0  0  0  0  0  0
    0.9326    1.1225    0.6219 C   0  0  0  0  0  0  0  0  0  0  0  0
   -3.0916    0.4128   -1.6400 H   0  0  0  0  0  0  0  0  0  0  0  0
   -3.5716   -1.0095   -0.7144 H   0  0  0  0  0  0  0  0  0  0  0  0
   -4.2253    0.5757   -0.2978 H   0  0  0  0  0  0  0  0  0  0  0  0
   -1.9714    1.3494    0.3814 H   0  0  0  0  0  0  0  0  0  0  0  0
   -2.4466   -0.0712    1.3086 H   0  0  0  0  0  0  0  0  0  0  0  0
   -1.1399   -1.5235   -0.2082 H   0  0  0  0  0  0  0  0  0  0  0  0
   -0.6494   -0.1191   -1.1542 H   0  0  0  0  0  0  0  0  0  0  0  0
   -0.0697   -0.3992    1.8185 H   0  0  0  0  0  0  0  0  0  0  0  0
    2.1085   -1.2499    1.3198 H   0  0  0  0  0  0  0  0  0  0  0  0
    1.0971   -2.2077    0.2338 H   0  0  0  0  0  0  0  0  0  0  0  0
    3.2093   -0.7752   -0.7280 H   0  0  0  0  0  0  0  0  0  0  0  0
    1.7225   -0.9021   -1.6586 H   0  0  0  0  0  0  0  0  0  0  0  0
    2.8210    1.5133   -0.3864 H   0  0  0  0  0  0  0  0  0  0  0  0
    1.4495    1.3791   -1.4749 H   0  0  0  0  0  0  0  0  0  0  0  0
    1.4931    1.3652    1.5257 H   0  0  0  0  0  0  0  0  0  0  0  0
    0.2048    1.9147    0.4575 H   0  0  0  0  0  0  0  0  0  0  0  0
  1  2  1  0  0  0  0
  2  3  1  0  0  0  0
  3  4  1  0  0  0  0
  4  5  1  0  0  0  0
  5  6  1  0  0  0  0
  6  7  1  0  0  0  0
  4  8  1  0  0  0  0
  7  8  1  0  0  0  0
  1  9  1  0  0  0  0
  1 10  1  0  0  0  0
  1 11  1  0  0  0  0
  2 12  1  0  0  0  0
  2 13  1  0  0  0  0
  3 14  1  0  0  0  0
  3 15  1  0  0  0  0
  4 16  1  0  0  0  0
  5 17  1  0  0  0  0
  5 18  1  0  0  0  0
  6 19  1  0  0  0  0
  6 20  1  0  0  0  0
  7 21  1  0  0  0  0
  7 22  1  0  0  0  0
  8 23  1  0  0  0  0
  8 24  1  0  0  0  0
M  END
