 xtb: 6.7.1 (edcfbbe)
          04112511193D

 14 13  0     0  0            999 V2000
   -1.1975    0.1483   -0.4953 C   0  0  0  0  0  0  0  0  0  0  0  0
   -0.0453    0.4608    0.4852 C   0  0  0  0  0  0  0  0  0  0  0  0
    0.9849   -0.6802    0.5826 C   0  0  0  0  0  0  0  0  0  0  0  0
    1.7674   -0.7733   -0.5876 O   0  0  0  0  0  0  0  0  0  0  0  0
    0.6041    1.6559    0.1132 O   0  0  0  0  0  0  0  0  0  0  0  0
   -2.1740   -0.7065    0.0499 O   0  0  0  0  0  0  0  0  0  0  0  0
   -0.8072   -0.2559   -1.4383 H   0  0  0  0  0  0  0  0  0  0  0  0
   -1.7118    1.0869   -0.7150 H   0  0  0  0  0  0  0  0  0  0  0  0
   -0.4857    0.6364    1.4733 H   0  0  0  0  0  0  0  0  0  0  0  0
    0.4907   -1.6292    0.8116 H   0  0  0  0  0  0  0  0  0  0  0  0
    1.6880   -0.4501    1.3862 H   0  0  0  0  0  0  0  0  0  0  0  0
    1.2543   -1.1837   -1.2970 H   0  0  0  0  0  0  0  0  0  0  0  0
    1.3052    1.4270   -0.5197 H   0  0  0  0  0  0  0  0  0  0  0  0
   -1.7945   -1.5803    0.2163 H   0  0  0  0  0  0  0  0  0  0  0  0
  1  2  1  0  0  0  0
  2  3  1  0  0  0  0
  3  4  1  0  0  0  0
  2  5  1  0  0  0  0
  1  6  1  0  0  0  0
  1  7  1  0  0  0  0
  1  8  1  0  0  0  0
  2  9  1  0  0  0  0
  3 10  1  0  0  0  0
  3 11  1  0  0  0  0
  4 12  1  0  0  0  0
  5 13  1  0  0  0  0
  6 14  1  0  0  0  0
M  END
