 xtb: 6.7.1 (edcfbbe)
          04112511443D

 25 25  0     0  0            999 V2000
    3.5977   -0.4991    0.1814 C   0  0  0  0  0  0  0  0  0  0  0  0
    2.1702   -0.2154    0.5349 C   0  0  0  0  0  0  0  0  0  0  0  0
    1.6608   -0.5025    1.7221 C   0  0  0  0  0  0  0  0  0  0  0  0
    1.3407    0.3866   -0.5792 C   0  0  0  0  0  0  0  0  0  0  0  0
    2.0245    0.8522   -1.2935 H   0  0  0  0  0  0  0  0  0  0  0  0
    0.5554   -0.7327   -1.2976 C   0  0  0  0  0  0  0  0  0  0  0  0
   -0.8818   -0.3195   -1.6378 C   0  0  0  0  0  0  0  0  0  0  0  0
   -1.5590    0.1108   -0.3731 C   0  0  0  0  0  0  0  0  0  0  0  0
   -0.8971    0.9847    0.4094 C   0  0  0  0  0  0  0  0  0  0  0  0
    0.4113    1.5051   -0.0452 C   0  0  0  0  0  0  0  0  0  0  0  0
   -2.8422   -0.4340    0.0094 C   0  0  0  0  0  0  0  0  0  0  0  0
   -3.4653   -0.1518    1.0199 O   0  0  0  0  0  0  0  0  0  0  0  0
    3.6434   -1.1398   -0.6979 H   0  0  0  0  0  0  0  0  0  0  0  0
    4.1170    0.4287   -0.0546 H   0  0  0  0  0  0  0  0  0  0  0  0
    4.1137   -0.9896    1.0018 H   0  0  0  0  0  0  0  0  0  0  0  0
    0.6295   -0.3054    1.9647 H   0  0  0  0  0  0  0  0  0  0  0  0
    2.2525   -0.9538    2.5003 H   0  0  0  0  0  0  0  0  0  0  0  0
    1.0751   -1.0252   -2.2097 H   0  0  0  0  0  0  0  0  0  0  0  0
    0.5071   -1.6077   -0.6461 H   0  0  0  0  0  0  0  0  0  0  0  0
   -0.8623    0.5128   -2.3455 H   0  0  0  0  0  0  0  0  0  0  0  0
   -1.4109   -1.1520   -2.1016 H   0  0  0  0  0  0  0  0  0  0  0  0
   -1.3265    1.3158    1.3437 H   0  0  0  0  0  0  0  0  0  0  0  0
    0.2173    2.1945   -0.8725 H   0  0  0  0  0  0  0  0  0  0  0  0
    0.9179    2.0581    0.7441 H   0  0  0  0  0  0  0  0  0  0  0  0
   -3.2662   -1.1665   -0.7040 H   0  0  0  0  0  0  0  0  0  0  0  0
  1  2  1  0  0  0  0
  2  3  2  0  0  0  0
  2  4  1  0  0  0  0
  4  5  1  0  0  0  0
  4  6  1  0  0  0  0
  6  7  1  0  0  0  0
  7  8  1  0  0  0  0
  8  9  2  0  0  0  0
  4 10  1  0  0  0  0
  9 10  1  0  0  0  0
  8 11  1  0  0  0  0
 11 12  2  0  0  0  0
  1 13  1  0  0  0  0
  1 14  1  0  0  0  0
  1 15  1  0  0  0  0
  3 16  1  0  0  0  0
  3 17  1  0  0  0  0
  6 18  1  0  0  0  0
  6 19  1  0  0  0  0
  7 20  1  0  0  0  0
  7 21  1  0  0  0  0
  9 22  1  0  0  0  0
 10 23  1  0  0  0  0
 10 24  1  0  0  0  0
 11 25  1  0  0  0  0
M  END
