 xtb: 6.7.1 (edcfbbe)
          04112512233D

 20 19  0     0  0            999 V2000
   -2.1231    1.0472   -0.5852 C   0  0  0  0  0  0  0  0  0  0  0  0
   -1.5327   -0.0286    0.3229 C   0  0  0  0  0  0  0  0  0  0  0  0
   -2.6189   -0.9714    0.8326 C   0  0  0  0  0  0  0  0  0  0  0  0
   -0.4645   -0.8318   -0.4259 C   0  0  0  0  0  0  0  0  0  0  0  0
    0.6429   -0.0079   -0.8100 O   0  0  0  0  0  0  0  0  0  0  0  0
    1.6430    0.1478    0.0508 C   0  0  0  0  0  0  0  0  0  0  0  0
    1.6732   -0.3754    1.1459 O   0  0  0  0  0  0  0  0  0  0  0  0
    2.7250    1.0178   -0.5153 C   0  0  0  0  0  0  0  0  0  0  0  0
   -1.3349    1.6751   -0.9932 H   0  0  0  0  0  0  0  0  0  0  0  0
   -2.8134    1.6740   -0.0273 H   0  0  0  0  0  0  0  0  0  0  0  0
   -2.6607    0.5866   -1.4105 H   0  0  0  0  0  0  0  0  0  0  0  0
   -1.0447    0.4505    1.1798 H   0  0  0  0  0  0  0  0  0  0  0  0
   -3.0877   -1.4915    0.0009 H   0  0  0  0  0  0  0  0  0  0  0  0
   -3.3811   -0.4075    1.3627 H   0  0  0  0  0  0  0  0  0  0  0  0
   -2.1996   -1.7088    1.5123 H   0  0  0  0  0  0  0  0  0  0  0  0
   -0.0934   -1.6462    0.2043 H   0  0  0  0  0  0  0  0  0  0  0  0
   -0.8610   -1.2280   -1.3617 H   0  0  0  0  0  0  0  0  0  0  0  0
    2.2865    1.8236   -1.0948 H   0  0  0  0  0  0  0  0  0  0  0  0
    3.3401    0.4130   -1.1780 H   0  0  0  0  0  0  0  0  0  0  0  0
    3.3423    1.4032    0.2894 H   0  0  0  0  0  0  0  0  0  0  0  0
  1  2  1  0  0  0  0
  2  3  1  0  0  0  0
  2  4  1  0  0  0  0
  4  5  1  0  0  0  0
  5  6  1  0  0  0  0
  6  7  2  0  0  0  0
  6  8  1  0  0  0  0
  1  9  1  0  0  0  0
  1 10  1  0  0  0  0
  1 11  1  0  0  0  0
  2 12  1  0  0  0  0
  3 13  1  0  0  0  0
  3 14  1  0  0  0  0
  3 15  1  0  0  0  0
  4 16  1  0  0  0  0
  4 17  1  0  0  0  0
  8 18  1  0  0  0  0
  8 19  1  0  0  0  0
  8 20  1  0  0  0  0
M  END
