 xtb: 6.7.1 (edcfbbe)
          04112511493D

 17 16  0     0  0            999 V2000
   -2.6369    0.0222   -0.8359 C   0  0  0  0  0  0  0  0  0  0  0  0
   -2.0025   -0.3702    0.4928 C   0  0  0  0  0  0  0  0  0  0  0  0
   -0.7699    0.4778    0.8295 C   0  0  0  0  0  0  0  0  0  0  0  0
    0.4333    0.1279   -0.0069 C   0  0  0  0  0  0  0  0  0  0  0  0
    0.4466   -0.0760   -1.2020 O   0  0  0  0  0  0  0  0  0  0  0  0
    1.5331    0.0714    0.7423 O   0  0  0  0  0  0  0  0  0  0  0  0
    2.7674   -0.2255    0.0844 C   0  0  0  0  0  0  0  0  0  0  0  0
   -3.4885   -0.6179   -1.0509 H   0  0  0  0  0  0  0  0  0  0  0  0
   -2.9787    1.0541   -0.8049 H   0  0  0  0  0  0  0  0  0  0  0  0
   -1.9147   -0.0787   -1.6417 H   0  0  0  0  0  0  0  0  0  0  0  0
   -1.7169   -1.4234    0.4630 H   0  0  0  0  0  0  0  0  0  0  0  0
   -2.7318   -0.2423    1.2939 H   0  0  0  0  0  0  0  0  0  0  0  0
   -0.4879    0.3582    1.8753 H   0  0  0  0  0  0  0  0  0  0  0  0
   -0.9985    1.5306    0.6493 H   0  0  0  0  0  0  0  0  0  0  0  0
    2.7073   -1.2020   -0.3975 H   0  0  0  0  0  0  0  0  0  0  0  0
    3.5232   -0.2198    0.8632 H   0  0  0  0  0  0  0  0  0  0  0  0
    2.9776    0.5310   -0.6726 H   0  0  0  0  0  0  0  0  0  0  0  0
  1  2  1  0  0  0  0
  2  3  1  0  0  0  0
  3  4  1  0  0  0  0
  4  5  2  0  0  0  0
  4  6  1  0  0  0  0
  6  7  1  0  0  0  0
  1  8  1  0  0  0  0
  1  9  1  0  0  0  0
  1 10  1  0  0  0  0
  2 11  1  0  0  0  0
  2 12  1  0  0  0  0
  3 13  1  0  0  0  0
  3 14  1  0  0  0  0
  7 15  1  0  0  0  0
  7 16  1  0  0  0  0
  7 17  1  0  0  0  0
M  END
