 xtb: 6.7.1 (edcfbbe)
          04112511103D

 18 17  0     0  0            999 V2000
    2.3533   -0.1490   -0.6984 C   0  0  0  0  0  0  0  0  0  0  0  0
    1.5279   -0.6610    0.4772 C   0  0  0  0  0  0  0  0  0  0  0  0
    0.3246    0.2220    0.8043 C   0  0  0  0  0  0  0  0  0  0  0  0
   -0.7801    0.2435   -0.2576 C   0  0  0  0  0  0  0  0  0  0  0  0
   -0.3381    0.4753   -1.2393 H   0  0  0  0  0  0  0  0  0  0  0  0
   -1.5327   -1.0825   -0.3436 C   0  0  0  0  0  0  0  0  0  0  0  0
   -1.6534    1.3056    0.1070 O   0  0  0  0  0  0  0  0  0  0  0  0
    3.2446   -0.7589   -0.8241 H   0  0  0  0  0  0  0  0  0  0  0  0
    2.6614    0.8794   -0.5253 H   0  0  0  0  0  0  0  0  0  0  0  0
    1.7849   -0.1861   -1.6240 H   0  0  0  0  0  0  0  0  0  0  0  0
    1.1970   -1.6805    0.2744 H   0  0  0  0  0  0  0  0  0  0  0  0
    2.1652   -0.6950    1.3632 H   0  0  0  0  0  0  0  0  0  0  0  0
   -0.1246   -0.1047    1.7446 H   0  0  0  0  0  0  0  0  0  0  0  0
    0.6577    1.2530    0.9434 H   0  0  0  0  0  0  0  0  0  0  0  0
   -0.8532   -1.8841   -0.6148 H   0  0  0  0  0  0  0  0  0  0  0  0
   -1.9867   -1.3116    0.6179 H   0  0  0  0  0  0  0  0  0  0  0  0
   -2.3156   -1.0282   -1.0971 H   0  0  0  0  0  0  0  0  0  0  0  0
   -2.4036    1.3233   -0.5023 H   0  0  0  0  0  0  0  0  0  0  0  0
  1  2  1  0  0  0  0
  2  3  1  0  0  0  0
  3  4  1  0  0  0  0
  4  5  1  0  0  0  0
  4  6  1  0  0  0  0
  4  7  1  0  0  0  0
  1  8  1  0  0  0  0
  1  9  1  0  0  0  0
  1 10  1  0  0  0  0
  2 11  1  0  0  0  0
  2 12  1  0  0  0  0
  3 13  1  0  0  0  0
  3 14  1  0  0  0  0
  6 15  1  0  0  0  0
  6 16  1  0  0  0  0
  6 17  1  0  0  0  0
  7 18  1  0  0  0  0
M  END
