 xtb: 6.7.1 (edcfbbe)
          04112511173D

 35 35  0     0  0            999 V2000
    0.0419   -3.1283    0.0549 C   0  0  0  0  0  0  0  0  0  0  0  0
    0.6706   -1.7734   -0.0133 C   0  0  0  0  0  0  0  0  0  0  0  0
    2.0554   -1.5746    0.0750 C   0  0  0  0  0  0  0  0  0  0  0  0
    2.6014   -0.3706    0.0310 N   0  0  0  0  0  0  0  0  0  0  0  0
    1.7908    0.6866   -0.1229 C   0  0  0  0  0  0  0  0  0  0  0  0
    0.4531    0.6011   -0.2444 N   0  0  0  0  0  0  0  0  0  0  0  0
   -0.0692   -0.6045   -0.1660 C   0  0  0  0  0  0  0  0  0  0  0  0
   -1.4401   -0.6918   -0.3094 O   0  0  0  0  0  0  0  0  0  0  0  0
   -2.2154    0.2024    0.3841 C   0  0  0  0  0  0  0  0  0  0  0  0
   -1.8231    0.7637    1.3935 O   0  0  0  0  0  0  0  0  0  0  0  0
   -3.4358    0.3294   -0.1383 N   0  0  0  0  0  0  0  0  0  0  0  0
   -4.4291    1.1351    0.5403 C   0  0  0  0  0  0  0  0  0  0  0  0
   -3.8870   -0.3535   -1.3312 C   0  0  0  0  0  0  0  0  0  0  0  0
    2.3266    1.9101   -0.1869 N   0  0  0  0  0  0  0  0  0  0  0  0
    3.7371    2.1346    0.0191 C   0  0  0  0  0  0  0  0  0  0  0  0
    1.4587    3.0619   -0.2873 C   0  0  0  0  0  0  0  0  0  0  0  0
    2.9884   -2.7292    0.2370 C   0  0  0  0  0  0  0  0  0  0  0  0
    0.3287   -3.6337    0.9757 H   0  0  0  0  0  0  0  0  0  0  0  0
   -1.0402   -3.0371    0.0233 H   0  0  0  0  0  0  0  0  0  0  0  0
    0.3683   -3.7411   -0.7842 H   0  0  0  0  0  0  0  0  0  0  0  0
   -4.7647    1.9360   -0.1181 H   0  0  0  0  0  0  0  0  0  0  0  0
   -3.9780    1.5618    1.4327 H   0  0  0  0  0  0  0  0  0  0  0  0
   -5.2803    0.5138    0.8196 H   0  0  0  0  0  0  0  0  0  0  0  0
   -4.4066    0.3611   -1.9686 H   0  0  0  0  0  0  0  0  0  0  0  0
   -4.5723   -1.1601   -1.0652 H   0  0  0  0  0  0  0  0  0  0  0  0
   -3.0372   -0.7661   -1.8660 H   0  0  0  0  0  0  0  0  0  0  0  0
    3.9013    2.6840    0.9482 H   0  0  0  0  0  0  0  0  0  0  0  0
    4.1428    2.7079   -0.8149 H   0  0  0  0  0  0  0  0  0  0  0  0
    4.2320    1.1700    0.0763 H   0  0  0  0  0  0  0  0  0  0  0  0
    0.8201    3.1421    0.5955 H   0  0  0  0  0  0  0  0  0  0  0  0
    0.8104    2.9625   -1.1574 H   0  0  0  0  0  0  0  0  0  0  0  0
    2.0713    3.9527   -0.3830 H   0  0  0  0  0  0  0  0  0  0  0  0
    2.8711   -3.4215   -0.5935 H   0  0  0  0  0  0  0  0  0  0  0  0
    4.0102   -2.3662    0.2704 H   0  0  0  0  0  0  0  0  0  0  0  0
    2.7617   -3.2639    1.1568 H   0  0  0  0  0  0  0  0  0  0  0  0
  1  2  1  0  0  0  0
  2  3  4  0  0  0  0
  3  4  4  0  0  0  0
  4  5  4  0  0  0  0
  5  6  4  0  0  0  0
  2  7  4  0  0  0  0
  6  7  4  0  0  0  0
  7  8  1  0  0  0  0
  8  9  1  0  0  0  0
  9 10  2  0  0  0  0
  9 11  4  0  0  0  0
 11 12  1  0  0  0  0
 11 13  1  0  0  0  0
  5 14  4  0  0  0  0
 14 15  1  0  0  0  0
 14 16  1  0  0  0  0
  3 17  1  0  0  0  0
  1 18  1  0  0  0  0
  1 19  1  0  0  0  0
  1 20  1  0  0  0  0
 12 21  1  0  0  0  0
 12 22  1  0  0  0  0
 12 23  1  0  0  0  0
 13 24  1  0  0  0  0
 13 25  1  0  0  0  0
 13 26  1  0  0  0  0
 15 27  1  0  0  0  0
 15 28  1  0  0  0  0
 15 29  1  0  0  0  0
 16 30  1  0  0  0  0
 16 31  1  0  0  0  0
 16 32  1  0  0  0  0
 17 33  1  0  0  0  0
 17 34  1  0  0  0  0
 17 35  1  0  0  0  0
M  END
