 xtb: 6.7.1 (edcfbbe)
          04112511523D

 18 17  0     0  0            999 V2000
    1.8087   -1.3826    0.0937 C   0  0  0  0  0  0  0  0  0  0  0  0
    0.8560   -0.1999    0.2635 C   0  0  0  0  0  0  0  0  0  0  0  0
    1.6232    1.1110    0.1016 C   0  0  0  0  0  0  0  0  0  0  0  0
   -0.2921   -0.3096   -0.7491 C   0  0  0  0  0  0  0  0  0  0  0  0
   -1.4883    0.5977   -0.4507 C   0  0  0  0  0  0  0  0  0  0  0  0
   -2.2864    0.1399    0.6228 O   0  0  0  0  0  0  0  0  0  0  0  0
    2.2224   -1.3912   -0.9122 H   0  0  0  0  0  0  0  0  0  0  0  0
    1.2890   -2.3234    0.2595 H   0  0  0  0  0  0  0  0  0  0  0  0
    2.6303   -1.3149    0.8026 H   0  0  0  0  0  0  0  0  0  0  0  0
    0.4441   -0.2400    1.2783 H   0  0  0  0  0  0  0  0  0  0  0  0
    2.0620    1.1686   -0.8921 H   0  0  0  0  0  0  0  0  0  0  0  0
    2.4244    1.1717    0.8345 H   0  0  0  0  0  0  0  0  0  0  0  0
    0.9728    1.9709    0.2390 H   0  0  0  0  0  0  0  0  0  0  0  0
   -0.6580   -1.3386   -0.7716 H   0  0  0  0  0  0  0  0  0  0  0  0
    0.0851   -0.0651   -1.7432 H   0  0  0  0  0  0  0  0  0  0  0  0
   -1.1581    1.6267   -0.2592 H   0  0  0  0  0  0  0  0  0  0  0  0
   -2.1609    0.6114   -1.3118 H   0  0  0  0  0  0  0  0  0  0  0  0
   -1.7418    0.0883    1.4201 H   0  0  0  0  0  0  0  0  0  0  0  0
  1  2  1  0  0  0  0
  2  3  1  0  0  0  0
  2  4  1  0  0  0  0
  4  5  1  0  0  0  0
  5  6  1  0  0  0  0
  1  7  1  0  0  0  0
  1  8  1  0  0  0  0
  1  9  1  0  0  0  0
  2 10  1  0  0  0  0
  3 11  1  0  0  0  0
  3 12  1  0  0  0  0
  3 13  1  0  0  0  0
  4 14  1  0  0  0  0
  4 15  1  0  0  0  0
  5 16  1  0  0  0  0
  5 17  1  0  0  0  0
  6 18  1  0  0  0  0
M  END
