 xtb: 6.7.1 (edcfbbe)
          04112512233D

 20 19  0     0  0            999 V2000
   -2.9177    0.1408   -1.0390 C   0  0  0  0  0  0  0  0  0  0  0  0
   -1.8476    0.1449    0.0498 C   0  0  0  0  0  0  0  0  0  0  0  0
   -2.0659   -0.9976    1.0385 C   0  0  0  0  0  0  0  0  0  0  0  0
   -0.4594    0.0375   -0.5878 C   0  0  0  0  0  0  0  0  0  0  0  0
    0.5154    0.2406    0.4404 O   0  0  0  0  0  0  0  0  0  0  0  0
    1.8206    0.1907    0.1966 C   0  0  0  0  0  0  0  0  0  0  0  0
    2.5816    0.3754    1.1269 O   0  0  0  0  0  0  0  0  0  0  0  0
    2.2892   -0.0890   -1.2013 C   0  0  0  0  0  0  0  0  0  0  0  0
   -2.8740   -0.7837   -1.6092 H   0  0  0  0  0  0  0  0  0  0  0  0
   -2.7811    0.9764   -1.7202 H   0  0  0  0  0  0  0  0  0  0  0  0
   -3.9029    0.2211   -0.5893 H   0  0  0  0  0  0  0  0  0  0  0  0
   -1.8861    1.0925    0.5956 H   0  0  0  0  0  0  0  0  0  0  0  0
   -1.2712   -1.0058    1.7805 H   0  0  0  0  0  0  0  0  0  0  0  0
   -2.0697   -1.9537    0.5198 H   0  0  0  0  0  0  0  0  0  0  0  0
   -3.0165   -0.8780    1.5503 H   0  0  0  0  0  0  0  0  0  0  0  0
   -0.3274   -0.9532   -1.0336 H   0  0  0  0  0  0  0  0  0  0  0  0
   -0.3396    0.8024   -1.3612 H   0  0  0  0  0  0  0  0  0  0  0  0
    3.3745   -0.0825   -1.2095 H   0  0  0  0  0  0  0  0  0  0  0  0
    1.9120    0.6706   -1.8822 H   0  0  0  0  0  0  0  0  0  0  0  0
    1.9263   -1.0600   -1.5301 H   0  0  0  0  0  0  0  0  0  0  0  0
  1  2  1  0  0  0  0
  2  3  1  0  0  0  0
  2  4  1  0  0  0  0
  4  5  1  0  0  0  0
  5  6  1  0  0  0  0
  6  7  2  0  0  0  0
  6  8  1  0  0  0  0
  1  9  1  0  0  0  0
  1 10  1  0  0  0  0
  1 11  1  0  0  0  0
  2 12  1  0  0  0  0
  3 13  1  0  0  0  0
  3 14  1  0  0  0  0
  3 15  1  0  0  0  0
  4 16  1  0  0  0  0
  4 17  1  0  0  0  0
  8 18  1  0  0  0  0
  8 19  1  0  0  0  0
  8 20  1  0  0  0  0
M  END
