 xtb: 6.7.1 (edcfbbe)
          04112511223D

 22 21  0     0  0            999 V2000
    1.6040    0.8010    1.3304 C   0  0  0  0  0  0  0  0  0  0  0  0
    1.2586   -0.3183    0.3432 C   0  0  0  0  0  0  0  0  0  0  0  0
    2.4280   -0.5790   -0.6041 C   0  0  0  0  0  0  0  0  0  0  0  0
   -0.0000    0.0012   -0.4467 C   0  0  0  0  0  0  0  0  0  0  0  0
    0.0002    0.0044   -1.6616 O   0  0  0  0  0  0  0  0  0  0  0  0
   -1.2589    0.3169    0.3443 C   0  0  0  0  0  0  0  0  0  0  0  0
   -1.6032   -0.8054    1.3285 C   0  0  0  0  0  0  0  0  0  0  0  0
   -2.4288    0.5792   -0.6020 C   0  0  0  0  0  0  0  0  0  0  0  0
    2.5551    0.5785    1.8072 H   0  0  0  0  0  0  0  0  0  0  0  0
    0.8493    0.9005    2.1042 H   0  0  0  0  0  0  0  0  0  0  0  0
    1.6989    1.7490    0.8057 H   0  0  0  0  0  0  0  0  0  0  0  0
    1.0557   -1.2353    0.9060 H   0  0  0  0  0  0  0  0  0  0  0  0
    3.3076   -0.8840   -0.0443 H   0  0  0  0  0  0  0  0  0  0  0  0
    2.1721   -1.3611   -1.3150 H   0  0  0  0  0  0  0  0  0  0  0  0
    2.6624    0.3210   -1.1682 H   0  0  0  0  0  0  0  0  0  0  0  0
   -1.0567    1.2326    0.9096 H   0  0  0  0  0  0  0  0  0  0  0  0
   -0.8487   -0.9058    2.1025 H   0  0  0  0  0  0  0  0  0  0  0  0
   -2.5547   -0.5854    1.8055 H   0  0  0  0  0  0  0  0  0  0  0  0
   -1.6964   -1.7522    0.8013 H   0  0  0  0  0  0  0  0  0  0  0  0
   -2.1736    1.3632   -1.3110 H   0  0  0  0  0  0  0  0  0  0  0  0
   -2.6628   -0.3196   -1.1682 H   0  0  0  0  0  0  0  0  0  0  0  0
   -3.3084    0.8823   -0.0412 H   0  0  0  0  0  0  0  0  0  0  0  0
  1  2  1  0  0  0  0
  2  3  1  0  0  0  0
  2  4  1  0  0  0  0
  4  5  2  0  0  0  0
  4  6  1  0  0  0  0
  6  7  1  0  0  0  0
  6  8  1  0  0  0  0
  1  9  1  0  0  0  0
  1 10  1  0  0  0  0
  1 11  1  0  0  0  0
  2 12  1  0  0  0  0
  3 13  1  0  0  0  0
  3 14  1  0  0  0  0
  3 15  1  0  0  0  0
  6 16  1  0  0  0  0
  7 17  1  0  0  0  0
  7 18  1  0  0  0  0
  7 19  1  0  0  0  0
  8 20  1  0  0  0  0
  8 21  1  0  0  0  0
  8 22  1  0  0  0  0
M  END
