 xtb: 6.7.1 (edcfbbe)
          04112512223D

 16 15  0     0  0            999 V2000
   -2.1005   -0.4084   -0.4609 C   0  0  0  0  0  0  0  0  0  0  0  0
   -1.2759    0.2353    0.6499 C   0  0  0  0  0  0  0  0  0  0  0  0
    0.0422    0.6327    0.1807 N   0  0  0  0  0  0  0  0  0  0  0  0
    0.9553   -0.4776   -0.0383 C   0  0  0  0  0  0  0  0  0  0  0  0
    2.3541    0.0361   -0.3473 C   0  0  0  0  0  0  0  0  0  0  0  0
   -1.6989   -1.3805   -0.7333 H   0  0  0  0  0  0  0  0  0  0  0  0
   -3.1256   -0.5413   -0.1263 H   0  0  0  0  0  0  0  0  0  0  0  0
   -2.0927    0.2316   -1.3382 H   0  0  0  0  0  0  0  0  0  0  0  0
   -1.2150   -0.4615    1.5073 H   0  0  0  0  0  0  0  0  0  0  0  0
   -1.7849    1.1412    0.9876 H   0  0  0  0  0  0  0  0  0  0  0  0
    0.4591    1.2617    0.8605 H   0  0  0  0  0  0  0  0  0  0  0  0
    0.9916   -1.1559    0.8360 H   0  0  0  0  0  0  0  0  0  0  0  0
    0.5841   -1.0539   -0.8897 H   0  0  0  0  0  0  0  0  0  0  0  0
    2.7595    0.5775    0.5049 H   0  0  0  0  0  0  0  0  0  0  0  0
    3.0151   -0.7949   -0.5772 H   0  0  0  0  0  0  0  0  0  0  0  0
    2.3189    0.7078   -1.2000 H   0  0  0  0  0  0  0  0  0  0  0  0
  1  2  1  0  0  0  0
  2  3  1  0  0  0  0
  3  4  1  0  0  0  0
  4  5  1  0  0  0  0
  1  6  1  0  0  0  0
  1  7  1  0  0  0  0
  1  8  1  0  0  0  0
  2  9  1  0  0  0  0
  2 10  1  0  0  0  0
  3 11  1  0  0  0  0
  4 12  1  0  0  0  0
  4 13  1  0  0  0  0
  5 14  1  0  0  0  0
  5 15  1  0  0  0  0
  5 16  1  0  0  0  0
M  END
