 xtb: 6.7.1 (edcfbbe)
          04112511513D

 19 19  0     0  0            999 V2000
    1.7684   -2.4385    0.8084 C   0  0  0  0  0  0  0  0  0  0  0  0
    0.9686   -1.7960   -0.1912 O   0  0  0  0  0  0  0  0  0  0  0  0
    0.6799   -0.4808   -0.0424 C   0  0  0  0  0  0  0  0  0  0  0  0
    1.6474    0.5279    0.0250 C   0  0  0  0  0  0  0  0  0  0  0  0
    1.2848    1.8623    0.1067 C   0  0  0  0  0  0  0  0  0  0  0  0
   -0.0477    2.2299    0.0876 C   0  0  0  0  0  0  0  0  0  0  0  0
   -1.0189    1.2494   -0.0251 C   0  0  0  0  0  0  0  0  0  0  0  0
   -0.6718   -0.0988   -0.0716 C   0  0  0  0  0  0  0  0  0  0  0  0
   -1.7190   -1.1584   -0.1869 C   0  0  0  0  0  0  0  0  0  0  0  0
   -2.6295   -1.1187   -0.9857 O   0  0  0  0  0  0  0  0  0  0  0  0
   -1.5613   -2.1351    0.6814 O   0  0  0  0  0  0  0  0  0  0  0  0
   -2.6839    1.7070   -0.0653 Cl  0  0  0  0  0  0  0  0  0  0  0  0
    3.3343    0.1345   -0.0640 Cl  0  0  0  0  0  0  0  0  0  0  0  0
    2.5180   -3.0371    0.2938 H   0  0  0  0  0  0  0  0  0  0  0  0
    1.1102   -3.0833    1.3935 H   0  0  0  0  0  0  0  0  0  0  0  0
    2.2516   -1.7213    1.4678 H   0  0  0  0  0  0  0  0  0  0  0  0
    2.0536    2.6152    0.1653 H   0  0  0  0  0  0  0  0  0  0  0  0
   -0.3342    3.2659    0.1445 H   0  0  0  0  0  0  0  0  0  0  0  0
   -2.2425   -2.8313    0.5885 H   0  0  0  0  0  0  0  0  0  0  0  0
  1  2  1  0  0  0  0
  2  3  1  0  0  0  0
  3  4  4  0  0  0  0
  4  5  4  0  0  0  0
  5  6  4  0  0  0  0
  6  7  4  0  0  0  0
  3  8  4  0  0  0  0
  7  8  4  0  0  0  0
  8  9  1  0  0  0  0
  9 10  2  0  0  0  0
  9 11  1  0  0  0  0
  7 12  1  0  0  0  0
  4 13  1  0  0  0  0
  1 14  1  0  0  0  0
  1 15  1  0  0  0  0
  1 16  1  0  0  0  0
  5 17  1  0  0  0  0
  6 18  1  0  0  0  0
 11 19  1  0  0  0  0
M  END
