 xtb: 6.7.1 (edcfbbe)
          04112512013D

 22 22  0     0  0            999 V2000
    3.6684    0.2451    1.6564 C   0  0  0  0  0  0  0  0  0  0  0  0
    3.0577   -0.8089    0.7262 C   0  0  0  0  0  0  0  0  0  0  0  0
    3.1813   -0.3036   -0.6909 C   0  0  0  0  0  0  0  0  0  0  0  0
    4.2354   -0.3665   -1.3127 O   0  0  0  0  0  0  0  0  0  0  0  0
    2.1218    0.3387   -1.2426 N   0  0  0  0  0  0  0  0  0  0  0  0
    0.8027    0.4600   -0.7842 C   0  0  0  0  0  0  0  0  0  0  0  0
    0.1948    1.7138   -0.7719 C   0  0  0  0  0  0  0  0  0  0  0  0
   -1.1106    1.8543   -0.3426 C   0  0  0  0  0  0  0  0  0  0  0  0
   -1.8290    0.7447    0.0766 C   0  0  0  0  0  0  0  0  0  0  0  0
   -1.2361   -0.5124    0.0405 C   0  0  0  0  0  0  0  0  0  0  0  0
    0.0690   -0.6590   -0.3964 C   0  0  0  0  0  0  0  0  0  0  0  0
   -2.1329   -1.9151    0.5240 Cl  0  0  0  0  0  0  0  0  0  0  0  0
   -3.4633    0.9241    0.6246 Cl  0  0  0  0  0  0  0  0  0  0  0  0
    3.6708   -0.1216    2.6786 H   0  0  0  0  0  0  0  0  0  0  0  0
    3.0916    1.1659    1.6166 H   0  0  0  0  0  0  0  0  0  0  0  0
    4.6920    0.4604    1.3586 H   0  0  0  0  0  0  0  0  0  0  0  0
    2.0241   -0.9841    1.0086 H   0  0  0  0  0  0  0  0  0  0  0  0
    3.6266   -1.7353    0.8069 H   0  0  0  0  0  0  0  0  0  0  0  0
    2.3430    0.8441   -2.0939 H   0  0  0  0  0  0  0  0  0  0  0  0
    0.7483    2.5809   -1.0931 H   0  0  0  0  0  0  0  0  0  0  0  0
   -1.5805    2.8234   -0.3248 H   0  0  0  0  0  0  0  0  0  0  0  0
    0.4982   -1.6456   -0.4568 H   0  0  0  0  0  0  0  0  0  0  0  0
  1  2  1  0  0  0  0
  2  3  1  0  0  0  0
  3  4  2  0  0  0  0
  3  5  4  0  0  0  0
  5  6  1  0  0  0  0
  6  7  4  0  0  0  0
  7  8  4  0  0  0  0
  8  9  4  0  0  0  0
  9 10  4  0  0  0  0
  6 11  4  0  0  0  0
 10 11  4  0  0  0  0
 10 12  1  0  0  0  0
  9 13  1  0  0  0  0
  1 14  1  0  0  0  0
  1 15  1  0  0  0  0
  1 16  1  0  0  0  0
  2 17  1  0  0  0  0
  2 18  1  0  0  0  0
  5 19  1  0  0  0  0
  7 20  1  0  0  0  0
  8 21  1  0  0  0  0
 11 22  1  0  0  0  0
M  END
