 xtb: 6.7.1 (edcfbbe)
          04072510353D

 16 15  0     0  0            999 V2000
    2.1860    0.7565   -0.4236 C   0  0  0  0  0  0  0  0  0  0  0  0
    1.2581    0.2318    0.6765 C   0  0  0  0  0  0  0  0  0  0  0  0
    0.0278   -0.3876    0.0654 C   0  0  0  0  0  0  0  0  0  0  0  0
   -0.1480   -1.5905    0.0495 O   0  0  0  0  0  0  0  0  0  0  0  0
   -0.9774    0.5692   -0.5316 C   0  0  0  0  0  0  0  0  0  0  0  0
   -2.3228    0.4252    0.1847 C   0  0  0  0  0  0  0  0  0  0  0  0
    3.0782    1.1843    0.0244 H   0  0  0  0  0  0  0  0  0  0  0  0
    2.4839   -0.0565   -1.0814 H   0  0  0  0  0  0  0  0  0  0  0  0
    1.6936    1.5206   -1.0184 H   0  0  0  0  0  0  0  0  0  0  0  0
    1.7786   -0.5243    1.2662 H   0  0  0  0  0  0  0  0  0  0  0  0
    0.9573    1.0547    1.3258 H   0  0  0  0  0  0  0  0  0  0  0  0
   -1.1101    0.3032   -1.5823 H   0  0  0  0  0  0  0  0  0  0  0  0
   -0.6221    1.5954   -0.4625 H   0  0  0  0  0  0  0  0  0  0  0  0
   -3.0728    1.0451   -0.2977 H   0  0  0  0  0  0  0  0  0  0  0  0
   -2.2339    0.7287    1.2252 H   0  0  0  0  0  0  0  0  0  0  0  0
   -2.6489   -0.6119    0.1553 H   0  0  0  0  0  0  0  0  0  0  0  0
  1  2  1  0  0  0  0
  2  3  1  0  0  0  0
  3  4  2  0  0  0  0
  3  5  1  0  0  0  0
  5  6  1  0  0  0  0
  1  7  1  0  0  0  0
  1  8  1  0  0  0  0
  1  9  1  0  0  0  0
  2 10  1  0  0  0  0
  2 11  1  0  0  0  0
  5 12  1  0  0  0  0
  5 13  1  0  0  0  0
  6 14  1  0  0  0  0
  6 15  1  0  0  0  0
  6 16  1  0  0  0  0
M  END
