 xtb: 6.7.1 (edcfbbe)
          04112512083D

 17 16  0     0  0            999 V2000
   -2.1644   -0.4012   -0.9361 C   0  0  0  0  0  0  0  0  0  0  0  0
   -2.0785    0.5594    0.2443 C   0  0  0  0  0  0  0  0  0  0  0  0
   -0.8165    0.3416    1.0746 C   0  0  0  0  0  0  0  0  0  0  0  0
    0.3475    0.7273    0.3294 O   0  0  0  0  0  0  0  0  0  0  0  0
    1.2171   -0.2011   -0.0510 C   0  0  0  0  0  0  0  0  0  0  0  0
    1.1096   -1.3804    0.2156 O   0  0  0  0  0  0  0  0  0  0  0  0
    2.3445    0.4017   -0.8358 C   0  0  0  0  0  0  0  0  0  0  0  0
   -2.1487   -1.4328   -0.5907 H   0  0  0  0  0  0  0  0  0  0  0  0
   -3.0816   -0.2340   -1.4936 H   0  0  0  0  0  0  0  0  0  0  0  0
   -1.3222   -0.2580   -1.6102 H   0  0  0  0  0  0  0  0  0  0  0  0
   -2.9366    0.4159    0.9008 H   0  0  0  0  0  0  0  0  0  0  0  0
   -2.0849    1.5891   -0.1154 H   0  0  0  0  0  0  0  0  0  0  0  0
   -0.8247    0.9757    1.9639 H   0  0  0  0  0  0  0  0  0  0  0  0
   -0.7137   -0.7085    1.3653 H   0  0  0  0  0  0  0  0  0  0  0  0
    3.0335   -0.3783   -1.1420 H   0  0  0  0  0  0  0  0  0  0  0  0
    2.8554    1.1351   -0.2178 H   0  0  0  0  0  0  0  0  0  0  0  0
    1.9430    0.9153   -1.7051 H   0  0  0  0  0  0  0  0  0  0  0  0
  1  2  1  0  0  0  0
  2  3  1  0  0  0  0
  3  4  1  0  0  0  0
  4  5  1  0  0  0  0
  5  6  2  0  0  0  0
  5  7  1  0  0  0  0
  1  8  1  0  0  0  0
  1  9  1  0  0  0  0
  1 10  1  0  0  0  0
  2 11  1  0  0  0  0
  2 12  1  0  0  0  0
  3 13  1  0  0  0  0
  3 14  1  0  0  0  0
  7 15  1  0  0  0  0
  7 16  1  0  0  0  0
  7 17  1  0  0  0  0
M  END
