 xtb: 6.7.1 (edcfbbe)
          04112511443D

 25 25  0     0  0            999 V2000
    3.1392    0.3158    1.0335 C   0  0  0  0  0  0  0  0  0  0  0  0
    1.9307   -0.3577    0.4472 C   0  0  0  0  0  0  0  0  0  0  0  0
    1.4388   -1.4561    0.9965 C   0  0  0  0  0  0  0  0  0  0  0  0
    1.3867    0.3082   -0.7973 C   0  0  0  0  0  0  0  0  0  0  0  0
    2.2541    0.5443   -1.4250 H   0  0  0  0  0  0  0  0  0  0  0  0
    0.4329   -0.5370   -1.6493 C   0  0  0  0  0  0  0  0  0  0  0  0
   -0.9788   -0.7104   -1.0702 C   0  0  0  0  0  0  0  0  0  0  0  0
   -1.3557    0.3125   -0.0402 C   0  0  0  0  0  0  0  0  0  0  0  0
   -0.6015    1.3876    0.2327 C   0  0  0  0  0  0  0  0  0  0  0  0
    0.6922    1.6376   -0.4476 C   0  0  0  0  0  0  0  0  0  0  0  0
   -2.5961    0.0968    0.6790 C   0  0  0  0  0  0  0  0  0  0  0  0
   -3.3447   -0.8536    0.5338 O   0  0  0  0  0  0  0  0  0  0  0  0
    3.9116    0.4370    0.2758 H   0  0  0  0  0  0  0  0  0  0  0  0
    2.8881    1.3040    1.4144 H   0  0  0  0  0  0  0  0  0  0  0  0
    3.5443   -0.2697    1.8540 H   0  0  0  0  0  0  0  0  0  0  0  0
    0.5851   -1.9815    0.6132 H   0  0  0  0  0  0  0  0  0  0  0  0
    1.8861   -1.8838    1.8790 H   0  0  0  0  0  0  0  0  0  0  0  0
    0.3504   -0.0441   -2.6196 H   0  0  0  0  0  0  0  0  0  0  0  0
    0.8777   -1.5179   -1.8194 H   0  0  0  0  0  0  0  0  0  0  0  0
   -1.7148   -0.6578   -1.8777 H   0  0  0  0  0  0  0  0  0  0  0  0
   -1.1133   -1.6974   -0.6199 H   0  0  0  0  0  0  0  0  0  0  0  0
   -0.9318    2.0999    0.9759 H   0  0  0  0  0  0  0  0  0  0  0  0
    0.4983    2.1844   -1.3751 H   0  0  0  0  0  0  0  0  0  0  0  0
    1.3319    2.2661    0.1705 H   0  0  0  0  0  0  0  0  0  0  0  0
   -2.8447    0.8829    1.4171 H   0  0  0  0  0  0  0  0  0  0  0  0
  1  2  1  0  0  0  0
  2  3  2  0  0  0  0
  2  4  1  0  0  0  0
  4  5  1  0  0  0  0
  4  6  1  0  0  0  0
  6  7  1  0  0  0  0
  7  8  1  0  0  0  0
  8  9  2  0  0  0  0
  4 10  1  0  0  0  0
  9 10  1  0  0  0  0
  8 11  1  0  0  0  0
 11 12  2  0  0  0  0
  1 13  1  0  0  0  0
  1 14  1  0  0  0  0
  1 15  1  0  0  0  0
  3 16  1  0  0  0  0
  3 17  1  0  0  0  0
  6 18  1  0  0  0  0
  6 19  1  0  0  0  0
  7 20  1  0  0  0  0
  7 21  1  0  0  0  0
  9 22  1  0  0  0  0
 10 23  1  0  0  0  0
 10 24  1  0  0  0  0
 11 25  1  0  0  0  0
M  END
