 xtb: 6.7.1 (edcfbbe)
          04112511493D

 21 20  0     0  0            999 V2000
    2.5388   -0.1164   -0.7607 C   0  0  0  0  0  0  0  0  0  0  0  0
    1.3249   -0.1775    0.1627 C   0  0  0  0  0  0  0  0  0  0  0  0
    1.4119   -1.0684    0.8060 H   0  0  0  0  0  0  0  0  0  0  0  0
    0.0281   -0.2882   -0.6540 C   0  0  0  0  0  0  0  0  0  0  0  0
   -1.2499   -0.3436    0.1997 C   0  0  0  0  0  0  0  0  0  0  0  0
   -1.8442    1.0521    0.3933 C   0  0  0  0  0  0  0  0  0  0  0  0
   -2.2893   -1.2590   -0.4469 C   0  0  0  0  0  0  0  0  0  0  0  0
    1.3661    0.9840    0.9793 O   0  0  0  0  0  0  0  0  0  0  0  0
    2.4712    0.7651   -1.3924 H   0  0  0  0  0  0  0  0  0  0  0  0
    3.4464   -0.0451   -0.1677 H   0  0  0  0  0  0  0  0  0  0  0  0
    2.5844   -1.0045   -1.3829 H   0  0  0  0  0  0  0  0  0  0  0  0
   -0.0283    0.5598   -1.3385 H   0  0  0  0  0  0  0  0  0  0  0  0
    0.1074   -1.1972   -1.2518 H   0  0  0  0  0  0  0  0  0  0  0  0
   -0.9983   -0.7638    1.1814 H   0  0  0  0  0  0  0  0  0  0  0  0
   -2.2460    1.4162   -0.5503 H   0  0  0  0  0  0  0  0  0  0  0  0
   -1.0910    1.7584    0.7319 H   0  0  0  0  0  0  0  0  0  0  0  0
   -2.6525    1.0276    1.1209 H   0  0  0  0  0  0  0  0  0  0  0  0
   -1.9149   -2.2773   -0.5205 H   0  0  0  0  0  0  0  0  0  0  0  0
   -3.2027   -1.2709    0.1433 H   0  0  0  0  0  0  0  0  0  0  0  0
   -2.5315   -0.9066   -1.4471 H   0  0  0  0  0  0  0  0  0  0  0  0
    0.7342    0.8845    1.7024 H   0  0  0  0  0  0  0  0  0  0  0  0
  1  2  1  0  0  0  0
  2  3  1  0  0  0  0
  2  4  1  0  0  0  0
  4  5  1  0  0  0  0
  5  6  1  0  0  0  0
  5  7  1  0  0  0  0
  2  8  1  0  0  0  0
  1  9  1  0  0  0  0
  1 10  1  0  0  0  0
  1 11  1  0  0  0  0
  4 12  1  0  0  0  0
  4 13  1  0  0  0  0
  5 14  1  0  0  0  0
  6 15  1  0  0  0  0
  6 16  1  0  0  0  0
  6 17  1  0  0  0  0
  7 18  1  0  0  0  0
  7 19  1  0  0  0  0
  7 20  1  0  0  0  0
  8 21  1  0  0  0  0
M  END
