 xtb: 6.7.1 (edcfbbe)
          04112511553D

 24 24  0     0  0            999 V2000
   -3.3617   -0.2472   -0.6253 C   0  0  0  0  0  0  0  0  0  0  0  0
   -2.1647   -0.4740    0.2909 C   0  0  0  0  0  0  0  0  0  0  0  0
   -0.9764    0.3990   -0.1079 C   0  0  0  0  0  0  0  0  0  0  0  0
    0.2527    0.1691    0.7781 C   0  0  0  0  0  0  0  0  0  0  0  0
    0.9962   -1.1278    0.4180 C   0  0  0  0  0  0  0  0  0  0  0  0
    2.1354   -0.7304   -0.5413 C   0  0  0  0  0  0  0  0  0  0  0  0
    2.0606    0.7947   -0.6837 C   0  0  0  0  0  0  0  0  0  0  0  0
    1.3175    1.2505    0.5685 C   0  0  0  0  0  0  0  0  0  0  0  0
   -4.2011   -0.8670   -0.3194 H   0  0  0  0  0  0  0  0  0  0  0  0
   -3.6737    0.7944   -0.5938 H   0  0  0  0  0  0  0  0  0  0  0  0
   -3.1068   -0.4965   -1.6530 H   0  0  0  0  0  0  0  0  0  0  0  0
   -2.4479   -0.2460    1.3213 H   0  0  0  0  0  0  0  0  0  0  0  0
   -1.8793   -1.5272    0.2550 H   0  0  0  0  0  0  0  0  0  0  0  0
   -0.7186    0.2004   -1.1493 H   0  0  0  0  0  0  0  0  0  0  0  0
   -1.2776    1.4470   -0.0340 H   0  0  0  0  0  0  0  0  0  0  0  0
   -0.0795    0.1522    1.8203 H   0  0  0  0  0  0  0  0  0  0  0  0
    1.4061   -1.5838    1.3193 H   0  0  0  0  0  0  0  0  0  0  0  0
    0.3257   -1.8528   -0.0400 H   0  0  0  0  0  0  0  0  0  0  0  0
    3.0982   -1.0226   -0.1221 H   0  0  0  0  0  0  0  0  0  0  0  0
    2.0356   -1.2223   -1.5081 H   0  0  0  0  0  0  0  0  0  0  0  0
    3.0474    1.2478   -0.7665 H   0  0  0  0  0  0  0  0  0  0  0  0
    1.4897    1.0679   -1.5715 H   0  0  0  0  0  0  0  0  0  0  0  0
    2.0007    1.2591    1.4196 H   0  0  0  0  0  0  0  0  0  0  0  0
    0.8883    2.2458    0.4620 H   0  0  0  0  0  0  0  0  0  0  0  0
  1  2  1  0  0  0  0
  2  3  1  0  0  0  0
  3  4  1  0  0  0  0
  4  5  1  0  0  0  0
  5  6  1  0  0  0  0
  6  7  1  0  0  0  0
  4  8  1  0  0  0  0
  7  8  1  0  0  0  0
  1  9  1  0  0  0  0
  1 10  1  0  0  0  0
  1 11  1  0  0  0  0
  2 12  1  0  0  0  0
  2 13  1  0  0  0  0
  3 14  1  0  0  0  0
  3 15  1  0  0  0  0
  4 16  1  0  0  0  0
  5 17  1  0  0  0  0
  5 18  1  0  0  0  0
  6 19  1  0  0  0  0
  6 20  1  0  0  0  0
  7 21  1  0  0  0  0
  7 22  1  0  0  0  0
  8 23  1  0  0  0  0
  8 24  1  0  0  0  0
M  END
