 xtb: 6.7.1 (edcfbbe)
          04112511443D

 25 25  0     0  0            999 V2000
    1.6195   -1.0882    1.4313 C   0  0  0  0  0  0  0  0  0  0  0  0
    2.2575   -0.1385    0.4607 C   0  0  0  0  0  0  0  0  0  0  0  0
    3.5584    0.1095    0.4837 C   0  0  0  0  0  0  0  0  0  0  0  0
    1.3508    0.5440   -0.5351 C   0  0  0  0  0  0  0  0  0  0  0  0
    1.9731    1.1831   -1.1668 H   0  0  0  0  0  0  0  0  0  0  0  0
    0.6159   -0.4727   -1.4277 C   0  0  0  0  0  0  0  0  0  0  0  0
   -0.8351   -0.0617   -1.7084 C   0  0  0  0  0  0  0  0  0  0  0  0
   -1.5369    0.0915   -0.3942 C   0  0  0  0  0  0  0  0  0  0  0  0
   -0.9138    0.8179    0.5542 C   0  0  0  0  0  0  0  0  0  0  0  0
    0.3710    1.4764    0.2310 C   0  0  0  0  0  0  0  0  0  0  0  0
   -2.8007   -0.5639   -0.1416 C   0  0  0  0  0  0  0  0  0  0  0  0
   -3.4362   -0.5116    0.8987 O   0  0  0  0  0  0  0  0  0  0  0  0
    2.1780   -1.1149    2.3634 H   0  0  0  0  0  0  0  0  0  0  0  0
    0.5906   -0.8014    1.6395 H   0  0  0  0  0  0  0  0  0  0  0  0
    1.6100   -2.0991    1.0238 H   0  0  0  0  0  0  0  0  0  0  0  0
    4.0254    0.7822   -0.2151 H   0  0  0  0  0  0  0  0  0  0  0  0
    4.2122   -0.3587    1.2000 H   0  0  0  0  0  0  0  0  0  0  0  0
    1.1542   -0.5869   -2.3683 H   0  0  0  0  0  0  0  0  0  0  0  0
    0.5957   -1.4467   -0.9394 H   0  0  0  0  0  0  0  0  0  0  0  0
   -0.8461    0.8893   -2.2461 H   0  0  0  0  0  0  0  0  0  0  0  0
   -1.3254   -0.8121   -2.3287 H   0  0  0  0  0  0  0  0  0  0  0  0
   -1.3612    0.9395    1.5302 H   0  0  0  0  0  0  0  0  0  0  0  0
    0.1458    2.3234   -0.4235 H   0  0  0  0  0  0  0  0  0  0  0  0
    0.8579    1.8662    1.1242 H   0  0  0  0  0  0  0  0  0  0  0  0
   -3.1959   -1.1517   -0.9920 H   0  0  0  0  0  0  0  0  0  0  0  0
  1  2  1  0  0  0  0
  2  3  2  0  0  0  0
  2  4  1  0  0  0  0
  4  5  1  0  0  0  0
  4  6  1  0  0  0  0
  6  7  1  0  0  0  0
  7  8  1  0  0  0  0
  8  9  2  0  0  0  0
  4 10  1  0  0  0  0
  9 10  1  0  0  0  0
  8 11  1  0  0  0  0
 11 12  2  0  0  0  0
  1 13  1  0  0  0  0
  1 14  1  0  0  0  0
  1 15  1  0  0  0  0
  3 16  1  0  0  0  0
  3 17  1  0  0  0  0
  6 18  1  0  0  0  0
  6 19  1  0  0  0  0
  7 20  1  0  0  0  0
  7 21  1  0  0  0  0
  9 22  1  0  0  0  0
 10 23  1  0  0  0  0
 10 24  1  0  0  0  0
 11 25  1  0  0  0  0
M  END
