 xtb: 6.7.1 (edcfbbe)
          04112511493D

 17 16  0     0  0            999 V2000
   -2.1572    1.0982    0.5393 C   0  0  0  0  0  0  0  0  0  0  0  0
   -2.0855   -0.2900   -0.0851 C   0  0  0  0  0  0  0  0  0  0  0  0
   -0.8310   -0.4557   -0.9491 C   0  0  0  0  0  0  0  0  0  0  0  0
    0.4132   -0.4204   -0.1009 C   0  0  0  0  0  0  0  0  0  0  0  0
    0.6170   -1.1166    0.8715 O   0  0  0  0  0  0  0  0  0  0  0  0
    1.2860    0.4788   -0.5438 O   0  0  0  0  0  0  0  0  0  0  0  0
    2.5212    0.6096    0.1645 C   0  0  0  0  0  0  0  0  0  0  0  0
   -2.1497    1.8652   -0.2314 H   0  0  0  0  0  0  0  0  0  0  0  0
   -3.0666    1.2037    1.1248 H   0  0  0  0  0  0  0  0  0  0  0  0
   -1.3061    1.2632    1.1975 H   0  0  0  0  0  0  0  0  0  0  0  0
   -2.9652   -0.4586   -0.7065 H   0  0  0  0  0  0  0  0  0  0  0  0
   -2.0692   -1.0465    0.7018 H   0  0  0  0  0  0  0  0  0  0  0  0
   -0.7635    0.3317   -1.6988 H   0  0  0  0  0  0  0  0  0  0  0  0
   -0.8596   -1.4269   -1.4461 H   0  0  0  0  0  0  0  0  0  0  0  0
    3.0868   -0.3206    0.1008 H   0  0  0  0  0  0  0  0  0  0  0  0
    2.3277    0.8352    1.2139 H   0  0  0  0  0  0  0  0  0  0  0  0
    3.0521    1.4231   -0.3193 H   0  0  0  0  0  0  0  0  0  0  0  0
  1  2  1  0  0  0  0
  2  3  1  0  0  0  0
  3  4  1  0  0  0  0
  4  5  2  0  0  0  0
  4  6  1  0  0  0  0
  6  7  1  0  0  0  0
  1  8  1  0  0  0  0
  1  9  1  0  0  0  0
  1 10  1  0  0  0  0
  2 11  1  0  0  0  0
  2 12  1  0  0  0  0
  3 13  1  0  0  0  0
  3 14  1  0  0  0  0
  7 15  1  0  0  0  0
  7 16  1  0  0  0  0
  7 17  1  0  0  0  0
M  END
