 xtb: 6.7.1 (edcfbbe)
          04112512193D

 17 16  0     0  0            999 V2000
   -2.6839    0.4786   -0.4990 C   0  0  0  0  0  0  0  0  0  0  0  0
   -1.7086    0.3334    0.6730 C   0  0  0  0  0  0  0  0  0  0  0  0
   -0.4187   -0.2611    0.1699 C   0  0  0  0  0  0  0  0  0  0  0  0
   -0.2196   -1.4478    0.0119 O   0  0  0  0  0  0  0  0  0  0  0  0
    0.4676    0.6804   -0.1259 O   0  0  0  0  0  0  0  0  0  0  0  0
    1.7449    0.2814   -0.6510 C   0  0  0  0  0  0  0  0  0  0  0  0
    2.7224   -0.0371    0.4699 C   0  0  0  0  0  0  0  0  0  0  0  0
   -2.2789    1.1563   -1.2464 H   0  0  0  0  0  0  0  0  0  0  0  0
   -2.8593   -0.4893   -0.9627 H   0  0  0  0  0  0  0  0  0  0  0  0
   -3.6300    0.8738   -0.1421 H   0  0  0  0  0  0  0  0  0  0  0  0
   -2.1292   -0.3376    1.4213 H   0  0  0  0  0  0  0  0  0  0  0  0
   -1.5012    1.3079    1.1120 H   0  0  0  0  0  0  0  0  0  0  0  0
    1.6003   -0.5914   -1.2951 H   0  0  0  0  0  0  0  0  0  0  0  0
    2.0795    1.1365   -1.2390 H   0  0  0  0  0  0  0  0  0  0  0  0
    3.6934   -0.2700    0.0454 H   0  0  0  0  0  0  0  0  0  0  0  0
    2.8167    0.8149    1.1377 H   0  0  0  0  0  0  0  0  0  0  0  0
    2.3703   -0.8955    1.0378 H   0  0  0  0  0  0  0  0  0  0  0  0
  1  2  1  0  0  0  0
  2  3  1  0  0  0  0
  3  4  2  0  0  0  0
  3  5  1  0  0  0  0
  5  6  1  0  0  0  0
  6  7  1  0  0  0  0
  1  8  1  0  0  0  0
  1  9  1  0  0  0  0
  1 10  1  0  0  0  0
  2 11  1  0  0  0  0
  2 12  1  0  0  0  0
  6 13  1  0  0  0  0
  6 14  1  0  0  0  0
  7 15  1  0  0  0  0
  7 16  1  0  0  0  0
  7 17  1  0  0  0  0
M  END
