 xtb: 6.7.1 (edcfbbe)
          04112511023D

 15 14  0     0  0            999 V2000
   -1.9172    0.2554   -0.6076 C   0  0  0  0  0  0  0  0  0  0  0  0
   -1.1056    0.2427    0.6823 C   0  0  0  0  0  0  0  0  0  0  0  0
    0.0675   -0.7385    0.5991 C   0  0  0  0  0  0  0  0  0  0  0  0
    0.9941   -0.4552   -0.4343 O   0  0  0  0  0  0  0  0  0  0  0  0
    1.8283    0.6574   -0.1900 C   0  0  0  0  0  0  0  0  0  0  0  0
   -2.7037    1.0037   -0.5577 H   0  0  0  0  0  0  0  0  0  0  0  0
   -1.2704    0.4812   -1.4524 H   0  0  0  0  0  0  0  0  0  0  0  0
   -2.3712   -0.7177   -0.7785 H   0  0  0  0  0  0  0  0  0  0  0  0
   -1.7354   -0.0599    1.5198 H   0  0  0  0  0  0  0  0  0  0  0  0
   -0.7295    1.2455    0.8924 H   0  0  0  0  0  0  0  0  0  0  0  0
    0.5942   -0.7736    1.5642 H   0  0  0  0  0  0  0  0  0  0  0  0
   -0.3048   -1.7385    0.3627 H   0  0  0  0  0  0  0  0  0  0  0  0
    2.5612    0.6639   -0.9935 H   0  0  0  0  0  0  0  0  0  0  0  0
    2.3389    0.5559    0.7742 H   0  0  0  0  0  0  0  0  0  0  0  0
    1.2683    1.5970   -0.2031 H   0  0  0  0  0  0  0  0  0  0  0  0
  1  2  1  0  0  0  0
  2  3  1  0  0  0  0
  3  4  1  0  0  0  0
  4  5  1  0  0  0  0
  1  6  1  0  0  0  0
  1  7  1  0  0  0  0
  1  8  1  0  0  0  0
  2  9  1  0  0  0  0
  2 10  1  0  0  0  0
  3 11  1  0  0  0  0
  3 12  1  0  0  0  0
  5 13  1  0  0  0  0
  5 14  1  0  0  0  0
  5 15  1  0  0  0  0
M  END
