 xtb: 6.7.1 (edcfbbe)
          04112511573D

 14 13  0     0  0            999 V2000
    2.3973   -0.0277   -0.1864 C   0  0  0  0  0  0  0  0  0  0  0  0
    1.1634    0.1933    0.4627 O   0  0  0  0  0  0  0  0  0  0  0  0
    0.0495   -0.1474   -0.3379 C   0  0  0  0  0  0  0  0  0  0  0  0
   -1.2240    0.1705    0.4421 C   0  0  0  0  0  0  0  0  0  0  0  0
   -2.3938   -0.1309   -0.3691 N   0  0  0  0  0  0  0  0  0  0  0  0
    3.1689    0.2696    0.5189 H   0  0  0  0  0  0  0  0  0  0  0  0
    2.4725    0.5755   -1.0976 H   0  0  0  0  0  0  0  0  0  0  0  0
    2.5184   -1.0850   -0.4468 H   0  0  0  0  0  0  0  0  0  0  0  0
    0.0618    0.4252   -1.2754 H   0  0  0  0  0  0  0  0  0  0  0  0
    0.0827   -1.2190   -0.5896 H   0  0  0  0  0  0  0  0  0  0  0  0
   -1.1856   -0.3806    1.3960 H   0  0  0  0  0  0  0  0  0  0  0  0
   -1.2302    1.2380    0.6743 H   0  0  0  0  0  0  0  0  0  0  0  0
   -3.2326    0.1079    0.1470 H   0  0  0  0  0  0  0  0  0  0  0  0
   -2.4275   -1.1265   -0.5624 H   0  0  0  0  0  0  0  0  0  0  0  0
  1  2  1  0  0  0  0
  2  3  1  0  0  0  0
  3  4  1  0  0  0  0
  4  5  1  0  0  0  0
  1  6  1  0  0  0  0
  1  7  1  0  0  0  0
  1  8  1  0  0  0  0
  3  9  1  0  0  0  0
  3 10  1  0  0  0  0
  4 11  1  0  0  0  0
  4 12  1  0  0  0  0
  5 13  1  0  0  0  0
  5 14  1  0  0  0  0
M  END
