 xtb: 6.7.1 (edcfbbe)
          04112512083D

 17 16  0     0  0            999 V2000
   -2.6799    0.3846    0.9505 C   0  0  0  0  0  0  0  0  0  0  0  0
   -2.1529    0.4106   -0.4795 C   0  0  0  0  0  0  0  0  0  0  0  0
   -0.8684   -0.3926   -0.6240 C   0  0  0  0  0  0  0  0  0  0  0  0
    0.1698    0.2711    0.1119 O   0  0  0  0  0  0  0  0  0  0  0  0
    1.4112   -0.1738   -0.0320 C   0  0  0  0  0  0  0  0  0  0  0  0
    1.6992   -1.1151   -0.7438 O   0  0  0  0  0  0  0  0  0  0  0  0
    2.3859    0.6287    0.7760 C   0  0  0  0  0  0  0  0  0  0  0  0
   -1.9320    0.7824    1.6314 H   0  0  0  0  0  0  0  0  0  0  0  0
   -3.5801    0.9871    1.0307 H   0  0  0  0  0  0  0  0  0  0  0  0
   -2.9159   -0.6335    1.2507 H   0  0  0  0  0  0  0  0  0  0  0  0
   -1.9539    1.4396   -0.7807 H   0  0  0  0  0  0  0  0  0  0  0  0
   -2.8924   -0.0121   -1.1595 H   0  0  0  0  0  0  0  0  0  0  0  0
   -0.9828   -1.4061   -0.2248 H   0  0  0  0  0  0  0  0  0  0  0  0
   -0.5552   -0.4714   -1.6705 H   0  0  0  0  0  0  0  0  0  0  0  0
    3.3746    0.1897    0.6952 H   0  0  0  0  0  0  0  0  0  0  0  0
    2.0619    0.6528    1.8124 H   0  0  0  0  0  0  0  0  0  0  0  0
    2.3987    1.6491    0.4019 H   0  0  0  0  0  0  0  0  0  0  0  0
  1  2  1  0  0  0  0
  2  3  1  0  0  0  0
  3  4  1  0  0  0  0
  4  5  1  0  0  0  0
  5  6  2  0  0  0  0
  5  7  1  0  0  0  0
  1  8  1  0  0  0  0
  1  9  1  0  0  0  0
  1 10  1  0  0  0  0
  2 11  1  0  0  0  0
  2 12  1  0  0  0  0
  3 13  1  0  0  0  0
  3 14  1  0  0  0  0
  7 15  1  0  0  0  0
  7 16  1  0  0  0  0
  7 17  1  0  0  0  0
M  END
