 xtb: 6.7.1 (edcfbbe)
          04112511443D

 25 25  0     0  0            999 V2000
    3.6001    0.4168   -0.7120 C   0  0  0  0  0  0  0  0  0  0  0  0
    2.5737   -0.0239    0.2852 C   0  0  0  0  0  0  0  0  0  0  0  0
    2.9025   -0.4422    1.4974 C   0  0  0  0  0  0  0  0  0  0  0  0
    1.1382    0.0400   -0.1892 C   0  0  0  0  0  0  0  0  0  0  0  0
    1.1311    0.3705   -1.2323 H   0  0  0  0  0  0  0  0  0  0  0  0
    0.4508   -1.3287   -0.1273 C   0  0  0  0  0  0  0  0  0  0  0  0
   -0.9176   -1.2563   -0.7990 C   0  0  0  0  0  0  0  0  0  0  0  0
   -1.7118   -0.0940   -0.2727 C   0  0  0  0  0  0  0  0  0  0  0  0
   -1.1341    0.9311    0.3760 C   0  0  0  0  0  0  0  0  0  0  0  0
    0.3214    1.0449    0.6328 C   0  0  0  0  0  0  0  0  0  0  0  0
   -3.1487   -0.0969   -0.4816 C   0  0  0  0  0  0  0  0  0  0  0  0
   -3.9255    0.7731   -0.1275 O   0  0  0  0  0  0  0  0  0  0  0  0
    3.4097    1.4453   -1.0156 H   0  0  0  0  0  0  0  0  0  0  0  0
    4.6027    0.3528   -0.2988 H   0  0  0  0  0  0  0  0  0  0  0  0
    3.5472   -0.2073   -1.6030 H   0  0  0  0  0  0  0  0  0  0  0  0
    2.1693   -0.7636    2.2173 H   0  0  0  0  0  0  0  0  0  0  0  0
    3.9279   -0.4854    1.8220 H   0  0  0  0  0  0  0  0  0  0  0  0
    1.0693   -2.0782   -0.6224 H   0  0  0  0  0  0  0  0  0  0  0  0
    0.3290   -1.6266    0.9144 H   0  0  0  0  0  0  0  0  0  0  0  0
   -0.7968   -1.1431   -1.8803 H   0  0  0  0  0  0  0  0  0  0  0  0
   -1.4704   -2.1823   -0.6290 H   0  0  0  0  0  0  0  0  0  0  0  0
   -1.7687    1.7258    0.7469 H   0  0  0  0  0  0  0  0  0  0  0  0
    0.6485    2.0657    0.4226 H   0  0  0  0  0  0  0  0  0  0  0  0
    0.4934    0.8796    1.7010 H   0  0  0  0  0  0  0  0  0  0  0  0
   -3.5345   -0.9851   -1.0165 H   0  0  0  0  0  0  0  0  0  0  0  0
  1  2  1  0  0  0  0
  2  3  2  0  0  0  0
  2  4  1  0  0  0  0
  4  5  1  0  0  0  0
  4  6  1  0  0  0  0
  6  7  1  0  0  0  0
  7  8  1  0  0  0  0
  8  9  2  0  0  0  0
  4 10  1  0  0  0  0
  9 10  1  0  0  0  0
  8 11  1  0  0  0  0
 11 12  2  0  0  0  0
  1 13  1  0  0  0  0
  1 14  1  0  0  0  0
  1 15  1  0  0  0  0
  3 16  1  0  0  0  0
  3 17  1  0  0  0  0
  6 18  1  0  0  0  0
  6 19  1  0  0  0  0
  7 20  1  0  0  0  0
  7 21  1  0  0  0  0
  9 22  1  0  0  0  0
 10 23  1  0  0  0  0
 10 24  1  0  0  0  0
 11 25  1  0  0  0  0
M  END
