 xtb: 6.7.1 (edcfbbe)
          04112511493D

 21 20  0     0  0            999 V2000
    1.5121    0.1708   -1.1941 C   0  0  0  0  0  0  0  0  0  0  0  0
    1.1173   -0.2173    0.2296 C   0  0  0  0  0  0  0  0  0  0  0  0
    0.9777   -1.3010    0.2899 H   0  0  0  0  0  0  0  0  0  0  0  0
   -0.1359    0.5007    0.7553 C   0  0  0  0  0  0  0  0  0  0  0  0
   -1.5049    0.1149    0.1686 C   0  0  0  0  0  0  0  0  0  0  0  0
   -1.7917    0.7677   -1.1831 C   0  0  0  0  0  0  0  0  0  0  0  0
   -1.7013   -1.3973    0.0856 C   0  0  0  0  0  0  0  0  0  0  0  0
    2.1989    0.0262    1.1230 O   0  0  0  0  0  0  0  0  0  0  0  0
    0.8499   -0.2923   -1.9174 H   0  0  0  0  0  0  0  0  0  0  0  0
    1.4783    1.2503   -1.3229 H   0  0  0  0  0  0  0  0  0  0  0  0
    2.5249   -0.1763   -1.3887 H   0  0  0  0  0  0  0  0  0  0  0  0
   -0.1643    0.2964    1.8297 H   0  0  0  0  0  0  0  0  0  0  0  0
    0.0037    1.5782    0.6306 H   0  0  0  0  0  0  0  0  0  0  0  0
   -2.2471    0.5074    0.8750 H   0  0  0  0  0  0  0  0  0  0  0  0
   -2.8321    0.6046   -1.4557 H   0  0  0  0  0  0  0  0  0  0  0  0
   -1.1704    0.3482   -1.9677 H   0  0  0  0  0  0  0  0  0  0  0  0
   -1.6164    1.8398   -1.1374 H   0  0  0  0  0  0  0  0  0  0  0  0
   -1.0666   -1.8300   -0.6836 H   0  0  0  0  0  0  0  0  0  0  0  0
   -1.4649   -1.8676    1.0371 H   0  0  0  0  0  0  0  0  0  0  0  0
   -2.7355   -1.6246   -0.1623 H   0  0  0  0  0  0  0  0  0  0  0  0
    2.4011    0.9722    1.1114 H   0  0  0  0  0  0  0  0  0  0  0  0
  1  2  1  0  0  0  0
  2  3  1  0  0  0  0
  2  4  1  0  0  0  0
  4  5  1  0  0  0  0
  5  6  1  0  0  0  0
  5  7  1  0  0  0  0
  2  8  1  0  0  0  0
  1  9  1  0  0  0  0
  1 10  1  0  0  0  0
  1 11  1  0  0  0  0
  4 12  1  0  0  0  0
  4 13  1  0  0  0  0
  5 14  1  0  0  0  0
  6 15  1  0  0  0  0
  6 16  1  0  0  0  0
  6 17  1  0  0  0  0
  7 18  1  0  0  0  0
  7 19  1  0  0  0  0
  7 20  1  0  0  0  0
  8 21  1  0  0  0  0
M  END
