 xtb: 6.7.1 (edcfbbe)
          04112511513D

 19 19  0     0  0            999 V2000
    0.7135   -2.8250    0.0504 C   0  0  0  0  0  0  0  0  0  0  0  0
    1.4529   -1.6202   -0.0395 O   0  0  0  0  0  0  0  0  0  0  0  0
    0.8472   -0.4196   -0.0179 C   0  0  0  0  0  0  0  0  0  0  0  0
    1.7209    0.6841    0.0015 C   0  0  0  0  0  0  0  0  0  0  0  0
    1.2666    1.9846    0.0258 C   0  0  0  0  0  0  0  0  0  0  0  0
   -0.0961    2.2372    0.0314 C   0  0  0  0  0  0  0  0  0  0  0  0
   -0.9661    1.1670    0.0069 C   0  0  0  0  0  0  0  0  0  0  0  0
   -0.5260   -0.1581   -0.0167 C   0  0  0  0  0  0  0  0  0  0  0  0
   -1.6167   -1.1916   -0.0856 C   0  0  0  0  0  0  0  0  0  0  0  0
   -2.0968   -1.5882   -1.1229 O   0  0  0  0  0  0  0  0  0  0  0  0
   -2.0321   -1.5672    1.1057 O   0  0  0  0  0  0  0  0  0  0  0  0
   -2.6757    1.4549   -0.0054 Cl  0  0  0  0  0  0  0  0  0  0  0  0
    3.4178    0.3575   -0.0070 Cl  0  0  0  0  0  0  0  0  0  0  0  0
    0.0388   -2.9430   -0.7996 H   0  0  0  0  0  0  0  0  0  0  0  0
    0.1597   -2.8705    0.9899 H   0  0  0  0  0  0  0  0  0  0  0  0
    1.4639   -3.6124    0.0293 H   0  0  0  0  0  0  0  0  0  0  0  0
    1.9745    2.7960    0.0416 H   0  0  0  0  0  0  0  0  0  0  0  0
   -0.4731    3.2450    0.0525 H   0  0  0  0  0  0  0  0  0  0  0  0
   -2.7963   -2.1788    1.0736 H   0  0  0  0  0  0  0  0  0  0  0  0
  1  2  1  0  0  0  0
  2  3  1  0  0  0  0
  3  4  4  0  0  0  0
  4  5  4  0  0  0  0
  5  6  4  0  0  0  0
  6  7  4  0  0  0  0
  3  8  4  0  0  0  0
  7  8  4  0  0  0  0
  8  9  1  0  0  0  0
  9 10  2  0  0  0  0
  9 11  1  0  0  0  0
  7 12  1  0  0  0  0
  4 13  1  0  0  0  0
  1 14  1  0  0  0  0
  1 15  1  0  0  0  0
  1 16  1  0  0  0  0
  5 17  1  0  0  0  0
  6 18  1  0  0  0  0
 11 19  1  0  0  0  0
M  END
