 xtb: 6.7.1 (edcfbbe)
          04112511223D

 15 14  0     0  0            999 V2000
    1.9560   -0.7969   -0.1218 C   0  0  0  0  0  0  0  0  0  0  0  0
    1.2164    0.4191    0.4238 C   0  0  0  0  0  0  0  0  0  0  0  0
   -0.0385    0.7742   -0.3867 C   0  0  0  0  0  0  0  0  0  0  0  0
   -1.1039   -0.2694   -0.2737 C   0  0  0  0  0  0  0  0  0  0  0  0
   -2.2550   -0.0923    0.3476 C   0  0  0  0  0  0  0  0  0  0  0  0
    2.8735   -0.9610    0.4386 H   0  0  0  0  0  0  0  0  0  0  0  0
    2.2150   -0.6475   -1.1678 H   0  0  0  0  0  0  0  0  0  0  0  0
    1.3457   -1.6925   -0.0409 H   0  0  0  0  0  0  0  0  0  0  0  0
    0.9286    0.2366    1.4614 H   0  0  0  0  0  0  0  0  0  0  0  0
    1.8889    1.2797    0.4106 H   0  0  0  0  0  0  0  0  0  0  0  0
    0.2432    0.8892   -1.4366 H   0  0  0  0  0  0  0  0  0  0  0  0
   -0.4302    1.7289   -0.0301 H   0  0  0  0  0  0  0  0  0  0  0  0
   -0.8808   -1.2218   -0.7354 H   0  0  0  0  0  0  0  0  0  0  0  0
   -2.9956   -0.8711    0.4151 H   0  0  0  0  0  0  0  0  0  0  0  0
   -2.5074    0.8464    0.8138 H   0  0  0  0  0  0  0  0  0  0  0  0
  1  2  1  0  0  0  0
  2  3  1  0  0  0  0
  3  4  1  0  0  0  0
  4  5  2  0  0  0  0
  1  6  1  0  0  0  0
  1  7  1  0  0  0  0
  1  8  1  0  0  0  0
  2  9  1  0  0  0  0
  2 10  1  0  0  0  0
  3 11  1  0  0  0  0
  3 12  1  0  0  0  0
  4 13  1  0  0  0  0
  5 14  1  0  0  0  0
  5 15  1  0  0  0  0
M  END
