 xtb: 6.7.1 (edcfbbe)
          04072507453D

 21 20  0     0  0            999 V2000
    2.3101   -0.8624   -0.5150 C   0  0  0  0  0  0  0  0  0  0  0  0
    1.2481   -0.0914    0.2639 C   0  0  0  0  0  0  0  0  0  0  0  0
    1.5852    1.4009    0.3167 C   0  0  0  0  0  0  0  0  0  0  0  0
    0.0104   -0.3432   -0.3859 O   0  0  0  0  0  0  0  0  0  0  0  0
   -1.1786   -0.0109    0.3303 C   0  0  0  0  0  0  0  0  0  0  0  0
   -1.9024    1.1450   -0.3616 C   0  0  0  0  0  0  0  0  0  0  0  0
   -2.0684   -1.2536    0.3873 C   0  0  0  0  0  0  0  0  0  0  0  0
    3.2780   -0.7512   -0.0365 H   0  0  0  0  0  0  0  0  0  0  0  0
    2.0464   -1.9154   -0.5551 H   0  0  0  0  0  0  0  0  0  0  0  0
    2.3623   -0.4810   -1.5308 H   0  0  0  0  0  0  0  0  0  0  0  0
    1.1955   -0.4835    1.2946 H   0  0  0  0  0  0  0  0  0  0  0  0
    1.5941    1.8091   -0.6909 H   0  0  0  0  0  0  0  0  0  0  0  0
    2.5645    1.5382    0.7655 H   0  0  0  0  0  0  0  0  0  0  0  0
    0.8527    1.9437    0.9095 H   0  0  0  0  0  0  0  0  0  0  0  0
   -0.9120    0.2849    1.3553 H   0  0  0  0  0  0  0  0  0  0  0  0
   -1.2699    2.0278   -0.3958 H   0  0  0  0  0  0  0  0  0  0  0  0
   -2.1481    0.8577   -1.3804 H   0  0  0  0  0  0  0  0  0  0  0  0
   -2.8166    1.3838    0.1737 H   0  0  0  0  0  0  0  0  0  0  0  0
   -1.5464   -2.0646    0.8889 H   0  0  0  0  0  0  0  0  0  0  0  0
   -2.3107   -1.5718   -0.6228 H   0  0  0  0  0  0  0  0  0  0  0  0
   -2.9853   -1.0332    0.9254 H   0  0  0  0  0  0  0  0  0  0  0  0
  1  2  1  0  0  0  0
  2  3  1  0  0  0  0
  2  4  1  0  0  0  0
  4  5  1  0  0  0  0
  5  6  1  0  0  0  0
  5  7  1  0  0  0  0
  1  8  1  0  0  0  0
  1  9  1  0  0  0  0
  1 10  1  0  0  0  0
  2 11  1  0  0  0  0
  3 12  1  0  0  0  0
  3 13  1  0  0  0  0
  3 14  1  0  0  0  0
  5 15  1  0  0  0  0
  6 16  1  0  0  0  0
  6 17  1  0  0  0  0
  6 18  1  0  0  0  0
  7 19  1  0  0  0  0
  7 20  1  0  0  0  0
  7 21  1  0  0  0  0
M  END
