 xtb: 6.7.1 (edcfbbe)
          04112512203D

 18 17  0     0  0            999 V2000
   -2.2233    0.8982    0.1913 C   0  0  0  0  0  0  0  0  0  0  0  0
   -0.8492    0.6826   -0.4309 C   0  0  0  0  0  0  0  0  0  0  0  0
   -0.0240   -0.4005    0.2727 C   0  0  0  0  0  0  0  0  0  0  0  0
   -0.0047   -0.1778    1.3449 H   0  0  0  0  0  0  0  0  0  0  0  0
   -0.5977   -1.7973    0.0543 C   0  0  0  0  0  0  0  0  0  0  0  0
    1.4243   -0.3513   -0.2254 C   0  0  0  0  0  0  0  0  0  0  0  0
    2.0082    0.8805    0.1516 O   0  0  0  0  0  0  0  0  0  0  0  0
   -2.7270    1.7292   -0.2966 H   0  0  0  0  0  0  0  0  0  0  0  0
   -2.8464    0.0144    0.0837 H   0  0  0  0  0  0  0  0  0  0  0  0
   -2.1287    1.1288    1.2500 H   0  0  0  0  0  0  0  0  0  0  0  0
   -0.2849    1.6161   -0.3788 H   0  0  0  0  0  0  0  0  0  0  0  0
   -0.9621    0.4165   -1.4846 H   0  0  0  0  0  0  0  0  0  0  0  0
   -1.6021   -1.8645    0.4604 H   0  0  0  0  0  0  0  0  0  0  0  0
    0.0195   -2.5444    0.5478 H   0  0  0  0  0  0  0  0  0  0  0  0
   -0.6354   -2.0277   -1.0082 H   0  0  0  0  0  0  0  0  0  0  0  0
    1.4371   -0.4607   -1.3187 H   0  0  0  0  0  0  0  0  0  0  0  0
    1.9889   -1.1847    0.2151 H   0  0  0  0  0  0  0  0  0  0  0  0
    2.9165    0.9163   -0.1752 H   0  0  0  0  0  0  0  0  0  0  0  0
  1  2  1  0  0  0  0
  2  3  1  0  0  0  0
  3  4  1  0  0  0  0
  3  5  1  0  0  0  0
  3  6  1  0  0  0  0
  6  7  1  0  0  0  0
  1  8  1  0  0  0  0
  1  9  1  0  0  0  0
  1 10  1  0  0  0  0
  2 11  1  0  0  0  0
  2 12  1  0  0  0  0
  5 13  1  0  0  0  0
  5 14  1  0  0  0  0
  5 15  1  0  0  0  0
  6 16  1  0  0  0  0
  6 17  1  0  0  0  0
  7 18  1  0  0  0  0
M  END
