 xtb: 6.7.1 (edcfbbe)
          04112512193D

 17 16  0     0  0            999 V2000
   -2.1416    1.3333    0.1609 C   0  0  0  0  0  0  0  0  0  0  0  0
   -1.9120   -0.1655    0.3452 C   0  0  0  0  0  0  0  0  0  0  0  0
   -0.5601   -0.6057   -0.1558 C   0  0  0  0  0  0  0  0  0  0  0  0
   -0.3729   -1.5700   -0.8723 O   0  0  0  0  0  0  0  0  0  0  0  0
    0.4198    0.1679    0.2832 O   0  0  0  0  0  0  0  0  0  0  0  0
    1.7605   -0.1559   -0.1199 C   0  0  0  0  0  0  0  0  0  0  0  0
    2.6820    0.9425    0.3737 C   0  0  0  0  0  0  0  0  0  0  0  0
   -1.3835    1.8990    0.6942 H   0  0  0  0  0  0  0  0  0  0  0  0
   -2.0981    1.5978   -0.8926 H   0  0  0  0  0  0  0  0  0  0  0  0
   -3.1204    1.6028    0.5461 H   0  0  0  0  0  0  0  0  0  0  0  0
   -2.6673   -0.7490   -0.1814 H   0  0  0  0  0  0  0  0  0  0  0  0
   -1.9581   -0.4135    1.4076 H   0  0  0  0  0  0  0  0  0  0  0  0
    2.0230   -1.1287    0.3089 H   0  0  0  0  0  0  0  0  0  0  0  0
    1.7820   -0.2488   -1.2107 H   0  0  0  0  0  0  0  0  0  0  0  0
    3.7031    0.7073    0.0926 H   0  0  0  0  0  0  0  0  0  0  0  0
    2.3990    1.8936   -0.0675 H   0  0  0  0  0  0  0  0  0  0  0  0
    2.6167    1.0238    1.4546 H   0  0  0  0  0  0  0  0  0  0  0  0
  1  2  1  0  0  0  0
  2  3  1  0  0  0  0
  3  4  2  0  0  0  0
  3  5  1  0  0  0  0
  5  6  1  0  0  0  0
  6  7  1  0  0  0  0
  1  8  1  0  0  0  0
  1  9  1  0  0  0  0
  1 10  1  0  0  0  0
  2 11  1  0  0  0  0
  2 12  1  0  0  0  0
  6 13  1  0  0  0  0
  6 14  1  0  0  0  0
  7 15  1  0  0  0  0
  7 16  1  0  0  0  0
  7 17  1  0  0  0  0
M  END
