 xtb: 6.7.1 (edcfbbe)
          04112511533D

 26 27  0     0  0            999 V2000
    0.5141    1.8272   -0.3684 C   0  0  0  0  0  0  0  0  0  0  0  0
    1.8600    2.0811   -0.4877 C   0  0  0  0  0  0  0  0  0  0  0  0
    2.8142    1.0933   -0.2206 C   0  0  0  0  0  0  0  0  0  0  0  0
    2.3690   -0.1800    0.1801 C   0  0  0  0  0  0  0  0  0  0  0  0
    0.9938   -0.4162    0.2992 C   0  0  0  0  0  0  0  0  0  0  0  0
    0.0656    0.5668    0.0317 C   0  0  0  0  0  0  0  0  0  0  0  0
   -1.3843    0.2870    0.1527 C   0  0  0  0  0  0  0  0  0  0  0  0
   -2.0607    0.4535    1.3562 C   0  0  0  0  0  0  0  0  0  0  0  0
   -3.4153    0.1895    1.4597 C   0  0  0  0  0  0  0  0  0  0  0  0
   -4.0920   -0.2476    0.3372 C   0  0  0  0  0  0  0  0  0  0  0  0
   -3.4669   -0.4296   -0.8817 C   0  0  0  0  0  0  0  0  0  0  0  0
   -2.1145   -0.1542   -0.9437 C   0  0  0  0  0  0  0  0  0  0  0  0
   -1.4807   -0.3271   -2.1327 F   0  0  0  0  0  0  0  0  0  0  0  0
   -5.4215   -0.5108    0.4269 F   0  0  0  0  0  0  0  0  0  0  0  0
    3.2510   -1.3158    0.4847 C   0  0  0  0  0  0  0  0  0  0  0  0
    2.8506   -2.4119    0.8318 O   0  0  0  0  0  0  0  0  0  0  0  0
    4.5597   -1.0736    0.3557 O   0  0  0  0  0  0  0  0  0  0  0  0
    4.0975    1.4453   -0.3691 O   0  0  0  0  0  0  0  0  0  0  0  0
   -0.2029    2.6036   -0.5847 H   0  0  0  0  0  0  0  0  0  0  0  0
    2.2198    3.0496   -0.7951 H   0  0  0  0  0  0  0  0  0  0  0  0
    0.6814   -1.4033    0.6065 H   0  0  0  0  0  0  0  0  0  0  0  0
   -1.5116    0.7948    2.2185 H   0  0  0  0  0  0  0  0  0  0  0  0
   -3.9435    0.3171    2.3896 H   0  0  0  0  0  0  0  0  0  0  0  0
   -4.0073   -0.7724   -1.7479 H   0  0  0  0  0  0  0  0  0  0  0  0
    5.0976   -1.8611    0.5670 H   0  0  0  0  0  0  0  0  0  0  0  0
    4.6978    0.7035   -0.1688 H   0  0  0  0  0  0  0  0  0  0  0  0
  1  2  4  0  0  0  0
  2  3  4  0  0  0  0
  3  4  4  0  0  0  0
  4  5  4  0  0  0  0
  1  6  4  0  0  0  0
  5  6  4  0  0  0  0
  6  7  1  0  0  0  0
  7  8  4  0  0  0  0
  8  9  4  0  0  0  0
  9 10  4  0  0  0  0
 10 11  4  0  0  0  0
  7 12  4  0  0  0  0
 11 12  4  0  0  0  0
 12 13  1  0  0  0  0
 10 14  1  0  0  0  0
  4 15  1  0  0  0  0
 15 16  2  0  0  0  0
 15 17  1  0  0  0  0
  3 18  1  0  0  0  0
  1 19  1  0  0  0  0
  2 20  1  0  0  0  0
  5 21  1  0  0  0  0
  8 22  1  0  0  0  0
  9 23  1  0  0  0  0
 11 24  1  0  0  0  0
 17 25  1  0  0  0  0
 18 26  1  0  0  0  0
M  END
