 xtb: 6.7.1 (edcfbbe)
          04112511103D

 18 17  0     0  0            999 V2000
    2.1830   -0.7732    0.5447 C   0  0  0  0  0  0  0  0  0  0  0  0
    1.4214    0.4283   -0.0056 C   0  0  0  0  0  0  0  0  0  0  0  0
    0.3239    0.0493   -1.0087 C   0  0  0  0  0  0  0  0  0  0  0  0
   -1.0871   -0.0169   -0.4085 C   0  0  0  0  0  0  0  0  0  0  0  0
   -1.7785   -0.2863   -1.2269 H   0  0  0  0  0  0  0  0  0  0  0  0
   -1.2298   -1.0518    0.7060 C   0  0  0  0  0  0  0  0  0  0  0  0
   -1.4127    1.2872    0.0499 O   0  0  0  0  0  0  0  0  0  0  0  0
    2.6705   -1.3113   -0.2656 H   0  0  0  0  0  0  0  0  0  0  0  0
    1.5226   -1.4617    1.0628 H   0  0  0  0  0  0  0  0  0  0  0  0
    2.9486   -0.4420    1.2427 H   0  0  0  0  0  0  0  0  0  0  0  0
    0.9716    0.9977    0.8091 H   0  0  0  0  0  0  0  0  0  0  0  0
    2.1368    1.0883   -0.5001 H   0  0  0  0  0  0  0  0  0  0  0  0
    0.2871    0.8021   -1.7982 H   0  0  0  0  0  0  0  0  0  0  0  0
    0.5515   -0.9120   -1.4704 H   0  0  0  0  0  0  0  0  0  0  0  0
   -2.2714   -1.1376    1.0095 H   0  0  0  0  0  0  0  0  0  0  0  0
   -0.8928   -2.0223    0.3544 H   0  0  0  0  0  0  0  0  0  0  0  0
   -0.6412   -0.7564    1.5700 H   0  0  0  0  0  0  0  0  0  0  0  0
   -2.2814    1.2663    0.4724 H   0  0  0  0  0  0  0  0  0  0  0  0
  1  2  1  0  0  0  0
  2  3  1  0  0  0  0
  3  4  1  0  0  0  0
  4  5  1  0  0  0  0
  4  6  1  0  0  0  0
  4  7  1  0  0  0  0
  1  8  1  0  0  0  0
  1  9  1  0  0  0  0
  1 10  1  0  0  0  0
  2 11  1  0  0  0  0
  2 12  1  0  0  0  0
  3 13  1  0  0  0  0
  3 14  1  0  0  0  0
  6 15  1  0  0  0  0
  6 16  1  0  0  0  0
  6 17  1  0  0  0  0
  7 18  1  0  0  0  0
M  END
