 xtb: 6.7.1 (edcfbbe)
          04112512213D

 19 18  0     0  0            999 V2000
    1.8001   -0.0503    1.0524 C   0  0  0  0  0  0  0  0  0  0  0  0
    1.1374   -0.4231   -0.2705 C   0  0  0  0  0  0  0  0  0  0  0  0
    2.1512   -0.3605   -1.4112 C   0  0  0  0  0  0  0  0  0  0  0  0
   -0.0515    0.5066   -0.5814 C   0  0  0  0  0  0  0  0  0  0  0  0
   -1.2752    0.2007    0.2491 C   0  0  0  0  0  0  0  0  0  0  0  0
   -1.2438    0.0793    1.4587 O   0  0  0  0  0  0  0  0  0  0  0  0
   -2.5470    0.0507   -0.5333 C   0  0  0  0  0  0  0  0  0  0  0  0
    2.5897   -0.7578    1.2939 H   0  0  0  0  0  0  0  0  0  0  0  0
    2.2352    0.9451    0.9905 H   0  0  0  0  0  0  0  0  0  0  0  0
    1.0697   -0.0603    1.8573 H   0  0  0  0  0  0  0  0  0  0  0  0
    0.7591   -1.4490   -0.1920 H   0  0  0  0  0  0  0  0  0  0  0  0
    1.7026   -0.6824   -2.3477 H   0  0  0  0  0  0  0  0  0  0  0  0
    2.9967   -1.0089   -1.1960 H   0  0  0  0  0  0  0  0  0  0  0  0
    2.5196    0.6553   -1.5333 H   0  0  0  0  0  0  0  0  0  0  0  0
   -0.3056    0.4371   -1.6382 H   0  0  0  0  0  0  0  0  0  0  0  0
    0.2476    1.5350   -0.3650 H   0  0  0  0  0  0  0  0  0  0  0  0
   -3.3908   -0.0970    0.1350 H   0  0  0  0  0  0  0  0  0  0  0  0
   -2.7053    0.9348   -1.1455 H   0  0  0  0  0  0  0  0  0  0  0  0
   -2.4530   -0.8055   -1.1975 H   0  0  0  0  0  0  0  0  0  0  0  0
  1  2  1  0  0  0  0
  2  3  1  0  0  0  0
  2  4  1  0  0  0  0
  4  5  1  0  0  0  0
  5  6  2  0  0  0  0
  5  7  1  0  0  0  0
  1  8  1  0  0  0  0
  1  9  1  0  0  0  0
  1 10  1  0  0  0  0
  2 11  1  0  0  0  0
  3 12  1  0  0  0  0
  3 13  1  0  0  0  0
  3 14  1  0  0  0  0
  4 15  1  0  0  0  0
  4 16  1  0  0  0  0
  7 17  1  0  0  0  0
  7 18  1  0  0  0  0
  7 19  1  0  0  0  0
M  END
