 xtb: 6.7.1 (edcfbbe)
          04112511553D

 24 24  0     0  0            999 V2000
   -2.8983    0.2785    0.9060 C   0  0  0  0  0  0  0  0  0  0  0  0
   -2.3578    0.2103   -0.5179 C   0  0  0  0  0  0  0  0  0  0  0  0
   -1.1548   -0.7236   -0.6650 C   0  0  0  0  0  0  0  0  0  0  0  0
    0.0871   -0.2798    0.1034 C   0  0  0  0  0  0  0  0  0  0  0  0
    1.2748   -1.2251   -0.0941 C   0  0  0  0  0  0  0  0  0  0  0  0
    2.4827   -0.4198    0.3919 C   0  0  0  0  0  0  0  0  0  0  0  0
    2.1107    1.0600    0.1721 C   0  0  0  0  0  0  0  0  0  0  0  0
    0.6676    1.0619   -0.3498 C   0  0  0  0  0  0  0  0  0  0  0  0
   -3.1314   -0.7189    1.2721 H   0  0  0  0  0  0  0  0  0  0  0  0
   -2.1741    0.7318    1.5776 H   0  0  0  0  0  0  0  0  0  0  0  0
   -3.8063    0.8762    0.9353 H   0  0  0  0  0  0  0  0  0  0  0  0
   -3.1509   -0.1499   -1.1777 H   0  0  0  0  0  0  0  0  0  0  0  0
   -2.0837    1.2125   -0.8518 H   0  0  0  0  0  0  0  0  0  0  0  0
   -1.4385   -1.7225   -0.3236 H   0  0  0  0  0  0  0  0  0  0  0  0
   -0.9004   -0.7983   -1.7258 H   0  0  0  0  0  0  0  0  0  0  0  0
   -0.1421   -0.2287    1.1716 H   0  0  0  0  0  0  0  0  0  0  0  0
    1.1575   -2.1628    0.4474 H   0  0  0  0  0  0  0  0  0  0  0  0
    1.3773   -1.4551   -1.1563 H   0  0  0  0  0  0  0  0  0  0  0  0
    2.6554   -0.6104    1.4515 H   0  0  0  0  0  0  0  0  0  0  0  0
    3.3890   -0.6949   -0.1457 H   0  0  0  0  0  0  0  0  0  0  0  0
    2.1740    1.6082    1.1122 H   0  0  0  0  0  0  0  0  0  0  0  0
    2.7841    1.5425   -0.5352 H   0  0  0  0  0  0  0  0  0  0  0  0
    0.1028    1.9128    0.0272 H   0  0  0  0  0  0  0  0  0  0  0  0
    0.6602    1.1033   -1.4407 H   0  0  0  0  0  0  0  0  0  0  0  0
  1  2  1  0  0  0  0
  2  3  1  0  0  0  0
  3  4  1  0  0  0  0
  4  5  1  0  0  0  0
  5  6  1  0  0  0  0
  6  7  1  0  0  0  0
  4  8  1  0  0  0  0
  7  8  1  0  0  0  0
  1  9  1  0  0  0  0
  1 10  1  0  0  0  0
  1 11  1  0  0  0  0
  2 12  1  0  0  0  0
  2 13  1  0  0  0  0
  3 14  1  0  0  0  0
  3 15  1  0  0  0  0
  4 16  1  0  0  0  0
  5 17  1  0  0  0  0
  5 18  1  0  0  0  0
  6 19  1  0  0  0  0
  6 20  1  0  0  0  0
  7 21  1  0  0  0  0
  7 22  1  0  0  0  0
  8 23  1  0  0  0  0
  8 24  1  0  0  0  0
M  END
