 xtb: 6.7.1 (edcfbbe)
          04112512003D

 24 25  0     0  0            999 V2000
    4.5055    0.2119    0.1919 C   0  0  0  0  0  0  0  0  0  0  0  0
    3.0716    0.3411    0.3336 N   0  0  0  0  0  0  0  0  0  0  0  0
    2.6340    1.3366    1.2841 C   0  0  0  0  0  0  0  0  0  0  0  0
    2.2520   -0.4304   -0.3791 C   0  0  0  0  0  0  0  0  0  0  0  0
    2.6372   -1.2886   -1.1770 O   0  0  0  0  0  0  0  0  0  0  0  0
    0.7728   -0.2282   -0.1943 C   0  0  0  0  0  0  0  0  0  0  0  0
    0.1036    0.7329   -0.9506 C   0  0  0  0  0  0  0  0  0  0  0  0
   -1.2689    0.8479   -0.8658 C   0  0  0  0  0  0  0  0  0  0  0  0
   -1.9715   -0.0084   -0.0203 C   0  0  0  0  0  0  0  0  0  0  0  0
   -1.3136   -0.9777    0.7339 C   0  0  0  0  0  0  0  0  0  0  0  0
    0.0589   -1.0867    0.6395 C   0  0  0  0  0  0  0  0  0  0  0  0
   -3.3887    0.1036    0.0680 N   0  0  0  0  0  0  0  0  0  0  0  0
   -3.9488    0.9532   -0.6066 O   0  0  0  0  0  0  0  0  0  0  0  0
   -3.9876   -0.6559    0.8130 O   0  0  0  0  0  0  0  0  0  0  0  0
    4.9341    1.1626   -0.1249 H   0  0  0  0  0  0  0  0  0  0  0  0
    4.7109   -0.5492   -0.5579 H   0  0  0  0  0  0  0  0  0  0  0  0
    4.9497   -0.0842    1.1424 H   0  0  0  0  0  0  0  0  0  0  0  0
    2.9618    2.3254    0.9596 H   0  0  0  0  0  0  0  0  0  0  0  0
    3.0759    1.1256    2.2588 H   0  0  0  0  0  0  0  0  0  0  0  0
    1.5519    1.3298    1.3747 H   0  0  0  0  0  0  0  0  0  0  0  0
    0.6611    1.3839   -1.6048 H   0  0  0  0  0  0  0  0  0  0  0  0
   -1.8098    1.5842   -1.4392 H   0  0  0  0  0  0  0  0  0  0  0  0
   -1.8880   -1.6273    1.3755 H   0  0  0  0  0  0  0  0  0  0  0  0
    0.5834   -1.8378    1.2081 H   0  0  0  0  0  0  0  0  0  0  0  0
  1  2  1  0  0  0  0
  2  3  1  0  0  0  0
  2  4  4  0  0  0  0
  4  5  2  0  0  0  0
  4  6  1  0  0  0  0
  6  7  4  0  0  0  0
  7  8  4  0  0  0  0
  8  9  4  0  0  0  0
  9 10  4  0  0  0  0
  6 11  4  0  0  0  0
 10 11  4  0  0  0  0
  9 12  1  0  0  0  0
 12 13  4  0  0  0  0
 12 14  4  0  0  0  0
 13 14  1  0  0  0  0
  1 15  1  0  0  0  0
  1 16  1  0  0  0  0
  1 17  1  0  0  0  0
  3 18  1  0  0  0  0
  3 19  1  0  0  0  0
  3 20  1  0  0  0  0
  7 21  1  0  0  0  0
  8 22  1  0  0  0  0
 10 23  1  0  0  0  0
 11 24  1  0  0  0  0
M  END
