 xtb: 6.7.1 (edcfbbe)
          04112511043D

 22 22  0     0  0            999 V2000
   -3.4394    0.8199   -0.2300 C   0  0  0  0  0  0  0  0  0  0  0  0
   -2.0415    0.4653    0.2694 C   0  0  0  0  0  0  0  0  0  0  0  0
   -2.0989   -0.7492    1.1921 C   0  0  0  0  0  0  0  0  0  0  0  0
   -1.1108    0.2040   -0.9304 C   0  0  0  0  0  0  0  0  0  0  0  0
    0.3068    0.0305   -0.4921 C   0  0  0  0  0  0  0  0  0  0  0  0
    0.8941   -1.2276   -0.3374 C   0  0  0  0  0  0  0  0  0  0  0  0
    2.1385   -1.3815    0.0848 N   0  0  0  0  0  0  0  0  0  0  0  0
    2.8228   -0.2773    0.3582 C   0  0  0  0  0  0  0  0  0  0  0  0
    2.2542    0.9782    0.1999 C   0  0  0  0  0  0  0  0  0  0  0  0
    1.0075    1.1300   -0.2206 N   0  0  0  0  0  0  0  0  0  0  0  0
   -4.1002    1.0178    0.6101 H   0  0  0  0  0  0  0  0  0  0  0  0
   -3.8547   -0.0027   -0.8078 H   0  0  0  0  0  0  0  0  0  0  0  0
   -3.4100    1.7052   -0.8599 H   0  0  0  0  0  0  0  0  0  0  0  0
   -1.6370    1.3159    0.8278 H   0  0  0  0  0  0  0  0  0  0  0  0
   -1.1105   -0.9953    1.5752 H   0  0  0  0  0  0  0  0  0  0  0  0
   -2.7511   -0.5486    2.0384 H   0  0  0  0  0  0  0  0  0  0  0  0
   -2.4866   -1.6139    0.6578 H   0  0  0  0  0  0  0  0  0  0  0  0
   -1.1619    1.0628   -1.6002 H   0  0  0  0  0  0  0  0  0  0  0  0
   -1.4457   -0.6881   -1.4609 H   0  0  0  0  0  0  0  0  0  0  0  0
    0.3524   -2.1362   -0.5604 H   0  0  0  0  0  0  0  0  0  0  0  0
    3.8368   -0.4131    0.7041 H   0  0  0  0  0  0  0  0  0  0  0  0
    2.8010    1.8863    0.4104 H   0  0  0  0  0  0  0  0  0  0  0  0
  1  2  1  0  0  0  0
  2  3  1  0  0  0  0
  2  4  1  0  0  0  0
  4  5  1  0  0  0  0
  5  6  4  0  0  0  0
  6  7  4  0  0  0  0
  7  8  4  0  0  0  0
  8  9  4  0  0  0  0
  5 10  4  0  0  0  0
  9 10  4  0  0  0  0
  1 11  1  0  0  0  0
  1 12  1  0  0  0  0
  1 13  1  0  0  0  0
  2 14  1  0  0  0  0
  3 15  1  0  0  0  0
  3 16  1  0  0  0  0
  3 17  1  0  0  0  0
  4 18  1  0  0  0  0
  4 19  1  0  0  0  0
  6 20  1  0  0  0  0
  8 21  1  0  0  0  0
  9 22  1  0  0  0  0
M  END
