 xtb: 6.7.1 (edcfbbe)
          04072510353D

 16 15  0     0  0            999 V2000
    2.0639    1.0302    0.4818 C   0  0  0  0  0  0  0  0  0  0  0  0
    1.4912   -0.0526   -0.4275 C   0  0  0  0  0  0  0  0  0  0  0  0
    0.0477   -0.4188   -0.1740 C   0  0  0  0  0  0  0  0  0  0  0  0
   -0.3351   -1.5684   -0.2853 O   0  0  0  0  0  0  0  0  0  0  0  0
   -0.8817    0.7108    0.1859 C   0  0  0  0  0  0  0  0  0  0  0  0
   -2.3455    0.2885    0.1865 C   0  0  0  0  0  0  0  0  0  0  0  0
    1.5629    1.9815    0.3317 H   0  0  0  0  0  0  0  0  0  0  0  0
    1.9687    0.7421    1.5256 H   0  0  0  0  0  0  0  0  0  0  0  0
    3.1196    1.1635    0.2613 H   0  0  0  0  0  0  0  0  0  0  0  0
    1.5409    0.2825   -1.4677 H   0  0  0  0  0  0  0  0  0  0  0  0
    2.0836   -0.9671   -0.3541 H   0  0  0  0  0  0  0  0  0  0  0  0
   -0.7171    1.5321   -0.5130 H   0  0  0  0  0  0  0  0  0  0  0  0
   -0.5959    1.0621    1.1798 H   0  0  0  0  0  0  0  0  0  0  0  0
   -2.9798    1.1175    0.4864 H   0  0  0  0  0  0  0  0  0  0  0  0
   -2.4967   -0.5403    0.8741 H   0  0  0  0  0  0  0  0  0  0  0  0
   -2.6437   -0.0441   -0.8050 H   0  0  0  0  0  0  0  0  0  0  0  0
  1  2  1  0  0  0  0
  2  3  1  0  0  0  0
  3  4  2  0  0  0  0
  3  5  1  0  0  0  0
  5  6  1  0  0  0  0
  1  7  1  0  0  0  0
  1  8  1  0  0  0  0
  1  9  1  0  0  0  0
  2 10  1  0  0  0  0
  2 11  1  0  0  0  0
  5 12  1  0  0  0  0
  5 13  1  0  0  0  0
  6 14  1  0  0  0  0
  6 15  1  0  0  0  0
  6 16  1  0  0  0  0
M  END
