 xtb: 6.7.1 (edcfbbe)
          04112511153D

 29 28  0     0  0            999 V2000
   -2.8139    0.8941    0.4902 C   0  0  0  0  0  0  0  0  0  0  0  0
   -2.2393   -0.0661   -0.5494 C   0  0  0  0  0  0  0  0  0  0  0  0
   -2.5220   -1.5141   -0.1518 C   0  0  0  0  0  0  0  0  0  0  0  0
   -0.7443    0.1830   -0.8066 C   0  0  0  0  0  0  0  0  0  0  0  0
    0.1362    0.0973    0.4400 C   0  0  0  0  0  0  0  0  0  0  0  0
    1.6543    0.1075    0.1763 C   0  0  0  0  0  0  0  0  0  0  0  0
    2.0947   -1.1763   -0.5318 C   0  0  0  0  0  0  0  0  0  0  0  0
    2.0617    1.3208   -0.6629 C   0  0  0  0  0  0  0  0  0  0  0  0
    2.3651    0.1847    1.5330 C   0  0  0  0  0  0  0  0  0  0  0  0
   -3.8960    0.7931    0.5365 H   0  0  0  0  0  0  0  0  0  0  0  0
   -2.5766    1.9239    0.2332 H   0  0  0  0  0  0  0  0  0  0  0  0
   -2.4122    0.6801    1.4772 H   0  0  0  0  0  0  0  0  0  0  0  0
   -2.7536    0.1218   -1.5004 H   0  0  0  0  0  0  0  0  0  0  0  0
   -2.0974   -2.2012   -0.8802 H   0  0  0  0  0  0  0  0  0  0  0  0
   -2.1006   -1.7408    0.8242 H   0  0  0  0  0  0  0  0  0  0  0  0
   -3.5949   -1.6862   -0.1025 H   0  0  0  0  0  0  0  0  0  0  0  0
   -0.4079   -0.5474   -1.5444 H   0  0  0  0  0  0  0  0  0  0  0  0
   -0.6388    1.1751   -1.2499 H   0  0  0  0  0  0  0  0  0  0  0  0
   -0.0994   -0.8183    0.9849 H   0  0  0  0  0  0  0  0  0  0  0  0
   -0.0984    0.9408    1.0923 H   0  0  0  0  0  0  0  0  0  0  0  0
    3.1766   -1.1898   -0.6447 H   0  0  0  0  0  0  0  0  0  0  0  0
    1.7996   -2.0506    0.0441 H   0  0  0  0  0  0  0  0  0  0  0  0
    1.6537   -1.2514   -1.5222 H   0  0  0  0  0  0  0  0  0  0  0  0
    1.6666    1.2474   -1.6725 H   0  0  0  0  0  0  0  0  0  0  0  0
    1.6931    2.2391   -0.2112 H   0  0  0  0  0  0  0  0  0  0  0  0
    3.1459    1.3832   -0.7283 H   0  0  0  0  0  0  0  0  0  0  0  0
    2.0792   -0.6543    2.1636 H   0  0  0  0  0  0  0  0  0  0  0  0
    2.1054    1.1058    2.0501 H   0  0  0  0  0  0  0  0  0  0  0  0
    3.4444    0.1603    1.4008 H   0  0  0  0  0  0  0  0  0  0  0  0
  1  2  1  0  0  0  0
  2  3  1  0  0  0  0
  2  4  1  0  0  0  0
  4  5  1  0  0  0  0
  5  6  1  0  0  0  0
  6  7  1  0  0  0  0
  6  8  1  0  0  0  0
  6  9  1  0  0  0  0
  1 10  1  0  0  0  0
  1 11  1  0  0  0  0
  1 12  1  0  0  0  0
  2 13  1  0  0  0  0
  3 14  1  0  0  0  0
  3 15  1  0  0  0  0
  3 16  1  0  0  0  0
  4 17  1  0  0  0  0
  4 18  1  0  0  0  0
  5 19  1  0  0  0  0
  5 20  1  0  0  0  0
  7 21  1  0  0  0  0
  7 22  1  0  0  0  0
  7 23  1  0  0  0  0
  8 24  1  0  0  0  0
  8 25  1  0  0  0  0
  8 26  1  0  0  0  0
  9 27  1  0  0  0  0
  9 28  1  0  0  0  0
  9 29  1  0  0  0  0
M  END
