 xtb: 6.7.1 (edcfbbe)
          04112511413D

 15 14  0     0  0            999 V2000
   -1.5306    1.1389   -0.3655 C   0  0  0  0  0  0  0  0  0  0  0  0
   -1.7515   -0.3301   -0.0268 C   0  0  0  0  0  0  0  0  0  0  0  0
   -0.5944   -0.9514    0.7546 C   0  0  0  0  0  0  0  0  0  0  0  0
    0.6986   -1.0788   -0.0686 C   0  0  0  0  0  0  0  0  0  0  0  0
    1.4515    0.1413   -0.1306 C   0  0  0  0  0  0  0  0  0  0  0  0
    2.0896    1.0933   -0.1613 N   0  0  0  0  0  0  0  0  0  0  0  0
   -0.6582    1.2700   -1.0015 H   0  0  0  0  0  0  0  0  0  0  0  0
   -2.3955    1.5402   -0.8881 H   0  0  0  0  0  0  0  0  0  0  0  0
   -1.3773    1.7210    0.5407 H   0  0  0  0  0  0  0  0  0  0  0  0
   -2.6578   -0.4206    0.5758 H   0  0  0  0  0  0  0  0  0  0  0  0
   -1.9107   -0.8954   -0.9481 H   0  0  0  0  0  0  0  0  0  0  0  0
   -0.8876   -1.9539    1.0703 H   0  0  0  0  0  0  0  0  0  0  0  0
   -0.3984   -0.3601    1.6516 H   0  0  0  0  0  0  0  0  0  0  0  0
    1.3534   -1.8273    0.3857 H   0  0  0  0  0  0  0  0  0  0  0  0
    0.4672   -1.3965   -1.0884 H   0  0  0  0  0  0  0  0  0  0  0  0
  1  2  1  0  0  0  0
  2  3  1  0  0  0  0
  3  4  1  0  0  0  0
  4  5  1  0  0  0  0
  5  6  3  0  0  0  0
  1  7  1  0  0  0  0
  1  8  1  0  0  0  0
  1  9  1  0  0  0  0
  2 10  1  0  0  0  0
  2 11  1  0  0  0  0
  3 12  1  0  0  0  0
  3 13  1  0  0  0  0
  4 14  1  0  0  0  0
  4 15  1  0  0  0  0
M  END
