 xtb: 6.7.1 (edcfbbe)
          04112512233D

 20 19  0     0  0            999 V2000
   -2.1065    0.1928    1.3250 C   0  0  0  0  0  0  0  0  0  0  0  0
   -1.7651   -0.5733    0.0495 C   0  0  0  0  0  0  0  0  0  0  0  0
   -2.9141   -0.5083   -0.9528 C   0  0  0  0  0  0  0  0  0  0  0  0
   -0.4963   -0.0096   -0.5864 C   0  0  0  0  0  0  0  0  0  0  0  0
    0.6097   -0.2564    0.2917 O   0  0  0  0  0  0  0  0  0  0  0  0
    1.7888    0.2506   -0.0438 C   0  0  0  0  0  0  0  0  0  0  0  0
    1.9674    0.8991   -1.0556 O   0  0  0  0  0  0  0  0  0  0  0  0
    2.8421   -0.0637    0.9752 C   0  0  0  0  0  0  0  0  0  0  0  0
   -2.9763   -0.2457    1.8060 H   0  0  0  0  0  0  0  0  0  0  0  0
   -2.3256    1.2329    1.0935 H   0  0  0  0  0  0  0  0  0  0  0  0
   -1.2708    0.1593    2.0189 H   0  0  0  0  0  0  0  0  0  0  0  0
   -1.5675   -1.6182    0.3073 H   0  0  0  0  0  0  0  0  0  0  0  0
   -3.8185   -0.9134   -0.5083 H   0  0  0  0  0  0  0  0  0  0  0  0
   -2.6807   -1.0813   -1.8464 H   0  0  0  0  0  0  0  0  0  0  0  0
   -3.1034    0.5222   -1.2437 H   0  0  0  0  0  0  0  0  0  0  0  0
   -0.2860   -0.4870   -1.5495 H   0  0  0  0  0  0  0  0  0  0  0  0
   -0.5782    1.0698   -0.7546 H   0  0  0  0  0  0  0  0  0  0  0  0
    2.5320   -0.9090    1.5797 H   0  0  0  0  0  0  0  0  0  0  0  0
    2.9733    0.8076    1.6134 H   0  0  0  0  0  0  0  0  0  0  0  0
    3.7845   -0.2618    0.4739 H   0  0  0  0  0  0  0  0  0  0  0  0
  1  2  1  0  0  0  0
  2  3  1  0  0  0  0
  2  4  1  0  0  0  0
  4  5  1  0  0  0  0
  5  6  1  0  0  0  0
  6  7  2  0  0  0  0
  6  8  1  0  0  0  0
  1  9  1  0  0  0  0
  1 10  1  0  0  0  0
  1 11  1  0  0  0  0
  2 12  1  0  0  0  0
  3 13  1  0  0  0  0
  3 14  1  0  0  0  0
  3 15  1  0  0  0  0
  4 16  1  0  0  0  0
  4 17  1  0  0  0  0
  8 18  1  0  0  0  0
  8 19  1  0  0  0  0
  8 20  1  0  0  0  0
M  END
