 xtb: 6.7.1 (edcfbbe)
          04112511193D

 14 13  0     0  0            999 V2000
   -1.2154    0.2087   -0.3005 C   0  0  0  0  0  0  0  0  0  0  0  0
    0.1312    0.6494    0.2933 C   0  0  0  0  0  0  0  0  0  0  0  0
    1.2878   -0.1866   -0.2786 C   0  0  0  0  0  0  0  0  0  0  0  0
    1.0770   -1.5433    0.0482 O   0  0  0  0  0  0  0  0  0  0  0  0
    0.2994    2.0138   -0.0164 O   0  0  0  0  0  0  0  0  0  0  0  0
   -1.6838   -0.9977    0.2444 O   0  0  0  0  0  0  0  0  0  0  0  0
   -1.1232    0.1371   -1.3933 H   0  0  0  0  0  0  0  0  0  0  0  0
   -1.9630    0.9707   -0.0675 H   0  0  0  0  0  0  0  0  0  0  0  0
    0.0821    0.4930    1.3813 H   0  0  0  0  0  0  0  0  0  0  0  0
    2.2351    0.1691    0.1484 H   0  0  0  0  0  0  0  0  0  0  0  0
    1.3141   -0.0423   -1.3666 H   0  0  0  0  0  0  0  0  0  0  0  0
    1.7918   -2.0788   -0.3232 H   0  0  0  0  0  0  0  0  0  0  0  0
    1.0755    2.3631    0.4445 H   0  0  0  0  0  0  0  0  0  0  0  0
   -0.9604   -1.6455    0.1981 H   0  0  0  0  0  0  0  0  0  0  0  0
  1  2  1  0  0  0  0
  2  3  1  0  0  0  0
  3  4  1  0  0  0  0
  2  5  1  0  0  0  0
  1  6  1  0  0  0  0
  1  7  1  0  0  0  0
  1  8  1  0  0  0  0
  2  9  1  0  0  0  0
  3 10  1  0  0  0  0
  3 11  1  0  0  0  0
  4 12  1  0  0  0  0
  5 13  1  0  0  0  0
  6 14  1  0  0  0  0
M  END
