 xtb: 6.7.1 (edcfbbe)
          04112511523D

 13 12  0     0  0            999 V2000
   -2.0490    0.0952   -0.6482 C   0  0  0  0  0  0  0  0  0  0  0  0
   -1.3210   -0.2819    0.5055 O   0  0  0  0  0  0  0  0  0  0  0  0
   -0.0405    0.3011    0.6139 C   0  0  0  0  0  0  0  0  0  0  0  0
    0.9863   -0.2792   -0.3742 C   0  0  0  0  0  0  0  0  0  0  0  0
    2.3049    0.0849   -0.0403 O   0  0  0  0  0  0  0  0  0  0  0  0
   -2.0942    1.1853   -0.7391 H   0  0  0  0  0  0  0  0  0  0  0  0
   -3.0512   -0.3025   -0.5084 H   0  0  0  0  0  0  0  0  0  0  0  0
   -1.6126   -0.3284   -1.5566 H   0  0  0  0  0  0  0  0  0  0  0  0
   -0.1126    1.3917    0.4871 H   0  0  0  0  0  0  0  0  0  0  0  0
    0.2903    0.0802    1.6318 H   0  0  0  0  0  0  0  0  0  0  0  0
    0.7531    0.0308   -1.4008 H   0  0  0  0  0  0  0  0  0  0  0  0
    0.9516   -1.3702   -0.3212 H   0  0  0  0  0  0  0  0  0  0  0  0
    2.4037    1.0451   -0.1102 H   0  0  0  0  0  0  0  0  0  0  0  0
  1  2  1  0  0  0  0
  2  3  1  0  0  0  0
  3  4  1  0  0  0  0
  4  5  1  0  0  0  0
  1  6  1  0  0  0  0
  1  7  1  0  0  0  0
  1  8  1  0  0  0  0
  3  9  1  0  0  0  0
  3 10  1  0  0  0  0
  4 11  1  0  0  0  0
  4 12  1  0  0  0  0
  5 13  1  0  0  0  0
M  END
