 xtb: 6.7.1 (edcfbbe)
          04112511233D

 26 25  0     0  0            999 V2000
   -1.1560   -1.0519   -1.4598 C   0  0  0  0  0  0  0  0  0  0  0  0
   -1.2861    0.0652   -0.4254 C   0  0  0  0  0  0  0  0  0  0  0  0
   -1.9587   -0.4817    0.8346 C   0  0  0  0  0  0  0  0  0  0  0  0
    0.0257    0.8601   -0.2102 C   0  0  0  0  0  0  0  0  0  0  0  0
   -0.2165    2.0013    0.7851 C   0  0  0  0  0  0  0  0  0  0  0  0
    1.3358    0.1266    0.1711 C   0  0  0  0  0  0  0  0  0  0  0  0
    1.2145   -0.9078    1.2869 C   0  0  0  0  0  0  0  0  0  0  0  0
    2.0491   -0.4952   -1.0319 C   0  0  0  0  0  0  0  0  0  0  0  0
   -0.6609   -0.6927   -2.3585 H   0  0  0  0  0  0  0  0  0  0  0  0
   -0.5971   -1.8936   -1.0606 H   0  0  0  0  0  0  0  0  0  0  0  0
   -2.1453   -1.4118   -1.7366 H   0  0  0  0  0  0  0  0  0  0  0  0
   -1.9803    0.8053   -0.8477 H   0  0  0  0  0  0  0  0  0  0  0  0
   -1.4058   -1.3111    1.2612 H   0  0  0  0  0  0  0  0  0  0  0  0
   -2.9527   -0.8425    0.5754 H   0  0  0  0  0  0  0  0  0  0  0  0
   -2.0714    0.2895    1.5902 H   0  0  0  0  0  0  0  0  0  0  0  0
    0.2297    1.3308   -1.1814 H   0  0  0  0  0  0  0  0  0  0  0  0
   -1.1527    2.5101    0.5666 H   0  0  0  0  0  0  0  0  0  0  0  0
    0.5877    2.7313    0.7228 H   0  0  0  0  0  0  0  0  0  0  0  0
   -0.2545    1.6316    1.8062 H   0  0  0  0  0  0  0  0  0  0  0  0
    1.9995    0.9183    0.5427 H   0  0  0  0  0  0  0  0  0  0  0  0
    2.2094   -1.2012    1.6177 H   0  0  0  0  0  0  0  0  0  0  0  0
    0.6810   -0.5033    2.1422 H   0  0  0  0  0  0  0  0  0  0  0  0
    0.7045   -1.8020    0.9396 H   0  0  0  0  0  0  0  0  0  0  0  0
    2.1428    0.2268   -1.8402 H   0  0  0  0  0  0  0  0  0  0  0  0
    1.5222   -1.3660   -1.4072 H   0  0  0  0  0  0  0  0  0  0  0  0
    3.0499   -0.8085   -0.7406 H   0  0  0  0  0  0  0  0  0  0  0  0
  1  2  1  0  0  0  0
  2  3  1  0  0  0  0
  2  4  1  0  0  0  0
  4  5  1  0  0  0  0
  4  6  1  0  0  0  0
  6  7  1  0  0  0  0
  6  8  1  0  0  0  0
  1  9  1  0  0  0  0
  1 10  1  0  0  0  0
  1 11  1  0  0  0  0
  2 12  1  0  0  0  0
  3 13  1  0  0  0  0
  3 14  1  0  0  0  0
  3 15  1  0  0  0  0
  4 16  1  0  0  0  0
  5 17  1  0  0  0  0
  5 18  1  0  0  0  0
  5 19  1  0  0  0  0
  6 20  1  0  0  0  0
  7 21  1  0  0  0  0
  7 22  1  0  0  0  0
  7 23  1  0  0  0  0
  8 24  1  0  0  0  0
  8 25  1  0  0  0  0
  8 26  1  0  0  0  0
M  END
