 xtb: 6.7.1 (edcfbbe)
          04112512153D

 21 20  0     0  0            999 V2000
    1.8786   -1.0646    0.3387 C   0  0  0  0  0  0  0  0  0  0  0  0
    1.2749    0.2352    0.8626 C   0  0  0  0  0  0  0  0  0  0  0  0
    0.1807    0.8592   -0.0225 C   0  0  0  0  0  0  0  0  0  0  0  0
   -0.0361    1.8529    0.4128 H   0  0  0  0  0  0  0  0  0  0  0  0
   -1.1799    0.1338   -0.0999 C   0  0  0  0  0  0  0  0  0  0  0  0
   -1.1358   -1.1943   -0.8524 C   0  0  0  0  0  0  0  0  0  0  0  0
   -1.8053   -0.0435    1.2805 C   0  0  0  0  0  0  0  0  0  0  0  0
    0.6319    1.0395   -1.3553 O   0  0  0  0  0  0  0  0  0  0  0  0
    2.8514   -1.2315    0.7955 H   0  0  0  0  0  0  0  0  0  0  0  0
    2.0058   -1.0124   -0.7396 H   0  0  0  0  0  0  0  0  0  0  0  0
    1.2492   -1.9180    0.5695 H   0  0  0  0  0  0  0  0  0  0  0  0
    0.8730    0.0909    1.8647 H   0  0  0  0  0  0  0  0  0  0  0  0
    2.0737    0.9789    0.9405 H   0  0  0  0  0  0  0  0  0  0  0  0
   -1.8154    0.8117   -0.6833 H   0  0  0  0  0  0  0  0  0  0  0  0
   -0.5497   -1.0867   -1.7605 H   0  0  0  0  0  0  0  0  0  0  0  0
   -0.7053   -1.9810   -0.2414 H   0  0  0  0  0  0  0  0  0  0  0  0
   -2.1458   -1.4915   -1.1249 H   0  0  0  0  0  0  0  0  0  0  0  0
   -1.8179    0.8984    1.8244 H   0  0  0  0  0  0  0  0  0  0  0  0
   -1.2538   -0.7766    1.8635 H   0  0  0  0  0  0  0  0  0  0  0  0
   -2.8285   -0.3949    1.1758 H   0  0  0  0  0  0  0  0  0  0  0  0
    1.4451    1.5611   -1.3423 H   0  0  0  0  0  0  0  0  0  0  0  0
  1  2  1  0  0  0  0
  2  3  1  0  0  0  0
  3  4  1  0  0  0  0
  3  5  1  0  0  0  0
  5  6  1  0  0  0  0
  5  7  1  0  0  0  0
  3  8  1  0  0  0  0
  1  9  1  0  0  0  0
  1 10  1  0  0  0  0
  1 11  1  0  0  0  0
  2 12  1  0  0  0  0
  2 13  1  0  0  0  0
  5 14  1  0  0  0  0
  6 15  1  0  0  0  0
  6 16  1  0  0  0  0
  6 17  1  0  0  0  0
  7 18  1  0  0  0  0
  7 19  1  0  0  0  0
  7 20  1  0  0  0  0
  8 21  1  0  0  0  0
M  END
