 xtb: 6.7.1 (edcfbbe)
          04112512013D

 22 22  0     0  0            999 V2000
    4.9666    0.5501   -1.0170 C   0  0  0  0  0  0  0  0  0  0  0  0
    4.5107    0.0230    0.3464 C   0  0  0  0  0  0  0  0  0  0  0  0
    3.0627   -0.4146    0.2852 C   0  0  0  0  0  0  0  0  0  0  0  0
    2.7310   -1.5886    0.2271 O   0  0  0  0  0  0  0  0  0  0  0  0
    2.1913    0.6304    0.2769 N   0  0  0  0  0  0  0  0  0  0  0  0
    0.8034    0.6230    0.1830 C   0  0  0  0  0  0  0  0  0  0  0  0
    0.1357    1.8499    0.1837 C   0  0  0  0  0  0  0  0  0  0  0  0
   -1.2398    1.9013    0.0940 C   0  0  0  0  0  0  0  0  0  0  0  0
   -1.9751    0.7289    0.0018 C   0  0  0  0  0  0  0  0  0  0  0  0
   -1.3158   -0.4936    0.0001 C   0  0  0  0  0  0  0  0  0  0  0  0
    0.0634   -0.5533    0.0897 C   0  0  0  0  0  0  0  0  0  0  0  0
   -2.2178   -1.9704   -0.1145 Cl  0  0  0  0  0  0  0  0  0  0  0  0
   -3.7038    0.7933   -0.1095 Cl  0  0  0  0  0  0  0  0  0  0  0  0
    4.8384   -0.2176   -1.7764 H   0  0  0  0  0  0  0  0  0  0  0  0
    6.0181    0.8190   -0.9734 H   0  0  0  0  0  0  0  0  0  0  0  0
    4.3961    1.4257   -1.3138 H   0  0  0  0  0  0  0  0  0  0  0  0
    4.6364    0.7923    1.1082 H   0  0  0  0  0  0  0  0  0  0  0  0
    5.1086   -0.8463    0.6200 H   0  0  0  0  0  0  0  0  0  0  0  0
    2.6004    1.5550    0.3353 H   0  0  0  0  0  0  0  0  0  0  0  0
    0.6941    2.7693    0.2550 H   0  0  0  0  0  0  0  0  0  0  0  0
   -1.7556    2.8468    0.0947 H   0  0  0  0  0  0  0  0  0  0  0  0
    0.5626   -1.5078    0.0876 H   0  0  0  0  0  0  0  0  0  0  0  0
  1  2  1  0  0  0  0
  2  3  1  0  0  0  0
  3  4  2  0  0  0  0
  3  5  4  0  0  0  0
  5  6  1  0  0  0  0
  6  7  4  0  0  0  0
  7  8  4  0  0  0  0
  8  9  4  0  0  0  0
  9 10  4  0  0  0  0
  6 11  4  0  0  0  0
 10 11  4  0  0  0  0
 10 12  1  0  0  0  0
  9 13  1  0  0  0  0
  1 14  1  0  0  0  0
  1 15  1  0  0  0  0
  1 16  1  0  0  0  0
  2 17  1  0  0  0  0
  2 18  1  0  0  0  0
  5 19  1  0  0  0  0
  7 20  1  0  0  0  0
  8 21  1  0  0  0  0
 11 22  1  0  0  0  0
M  END
