 xtb: 6.7.1 (edcfbbe)
          04112512193D

 17 16  0     0  0            999 V2000
   -2.8507   -0.1657    0.3864 C   0  0  0  0  0  0  0  0  0  0  0  0
   -1.6730    0.7463    0.0712 C   0  0  0  0  0  0  0  0  0  0  0  0
   -0.4060   -0.0285   -0.1864 C   0  0  0  0  0  0  0  0  0  0  0  0
   -0.3344   -1.2293   -0.3346 O   0  0  0  0  0  0  0  0  0  0  0  0
    0.6447    0.7853   -0.2555 O   0  0  0  0  0  0  0  0  0  0  0  0
    1.9395    0.2103   -0.5002 C   0  0  0  0  0  0  0  0  0  0  0  0
    2.5923   -0.2462    0.7956 C   0  0  0  0  0  0  0  0  0  0  0  0
   -2.9958   -0.8819   -0.4184 H   0  0  0  0  0  0  0  0  0  0  0  0
   -2.6645   -0.7233    1.3007 H   0  0  0  0  0  0  0  0  0  0  0  0
   -3.7563    0.4204    0.5082 H   0  0  0  0  0  0  0  0  0  0  0  0
   -1.4800    1.4453    0.8856 H   0  0  0  0  0  0  0  0  0  0  0  0
   -1.8742    1.3368   -0.8252 H   0  0  0  0  0  0  0  0  0  0  0  0
    1.8230   -0.6314   -1.1897 H   0  0  0  0  0  0  0  0  0  0  0  0
    2.5098    1.0110   -0.9718 H   0  0  0  0  0  0  0  0  0  0  0  0
    3.5930   -0.6095    0.5858 H   0  0  0  0  0  0  0  0  0  0  0  0
    2.6500    0.5816    1.4972 H   0  0  0  0  0  0  0  0  0  0  0  0
    2.0111   -1.0502    1.2421 H   0  0  0  0  0  0  0  0  0  0  0  0
  1  2  1  0  0  0  0
  2  3  1  0  0  0  0
  3  4  2  0  0  0  0
  3  5  1  0  0  0  0
  5  6  1  0  0  0  0
  6  7  1  0  0  0  0
  1  8  1  0  0  0  0
  1  9  1  0  0  0  0
  1 10  1  0  0  0  0
  2 11  1  0  0  0  0
  2 12  1  0  0  0  0
  6 13  1  0  0  0  0
  6 14  1  0  0  0  0
  7 15  1  0  0  0  0
  7 16  1  0  0  0  0
  7 17  1  0  0  0  0
M  END
