 xtb: 6.7.1 (edcfbbe)
          04112512243D

 23 22  0     0  0            999 V2000
    1.9868    1.0882    1.0050 C   0  0  0  0  0  0  0  0  0  0  0  0
    1.6462   -0.2340    0.3274 C   0  0  0  0  0  0  0  0  0  0  0  0
    0.3725   -0.2160   -0.5331 C   0  0  0  0  0  0  0  0  0  0  0  0
    0.4738    0.5867   -1.2724 H   0  0  0  0  0  0  0  0  0  0  0  0
    0.3113   -1.5374   -1.3031 C   0  0  0  0  0  0  0  0  0  0  0  0
   -0.8878    0.0787    0.3222 C   0  0  0  0  0  0  0  0  0  0  0  0
   -1.2825    1.5530    0.2059 C   0  0  0  0  0  0  0  0  0  0  0  0
   -2.1117   -0.7683   -0.0314 C   0  0  0  0  0  0  0  0  0  0  0  0
    1.2400    1.3567    1.7472 H   0  0  0  0  0  0  0  0  0  0  0  0
    2.9477    1.0081    1.5090 H   0  0  0  0  0  0  0  0  0  0  0  0
    2.0540    1.8877    0.2701 H   0  0  0  0  0  0  0  0  0  0  0  0
    1.5451   -1.0121    1.0884 H   0  0  0  0  0  0  0  0  0  0  0  0
    2.4854   -0.5141   -0.3144 H   0  0  0  0  0  0  0  0  0  0  0  0
    1.2174   -1.6551   -1.8942 H   0  0  0  0  0  0  0  0  0  0  0  0
    0.2439   -2.3811   -0.6203 H   0  0  0  0  0  0  0  0  0  0  0  0
   -0.5354   -1.5654   -1.9816 H   0  0  0  0  0  0  0  0  0  0  0  0
   -0.6421   -0.1327    1.3689 H   0  0  0  0  0  0  0  0  0  0  0  0
   -1.6102    1.7712   -0.8089 H   0  0  0  0  0  0  0  0  0  0  0  0
   -0.4516    2.2096    0.4443 H   0  0  0  0  0  0  0  0  0  0  0  0
   -2.1029    1.7802    0.8838 H   0  0  0  0  0  0  0  0  0  0  0  0
   -1.9186   -1.8285    0.0999 H   0  0  0  0  0  0  0  0  0  0  0  0
   -2.4241   -0.5908   -1.0577 H   0  0  0  0  0  0  0  0  0  0  0  0
   -2.9373   -0.4941    0.6225 H   0  0  0  0  0  0  0  0  0  0  0  0
  1  2  1  0  0  0  0
  2  3  1  0  0  0  0
  3  4  1  0  0  0  0
  3  5  1  0  0  0  0
  3  6  1  0  0  0  0
  6  7  1  0  0  0  0
  6  8  1  0  0  0  0
  1  9  1  0  0  0  0
  1 10  1  0  0  0  0
  1 11  1  0  0  0  0
  2 12  1  0  0  0  0
  2 13  1  0  0  0  0
  5 14  1  0  0  0  0
  5 15  1  0  0  0  0
  5 16  1  0  0  0  0
  6 17  1  0  0  0  0
  7 18  1  0  0  0  0
  7 19  1  0  0  0  0
  7 20  1  0  0  0  0
  8 21  1  0  0  0  0
  8 22  1  0  0  0  0
  8 23  1  0  0  0  0
M  END
