 xtb: 6.7.1 (edcfbbe)
          04112511503D

 17 16  0     0  0            999 V2000
    1.8116   -0.6658   -0.5288 C   0  0  0  0  0  0  0  0  0  0  0  0
    1.3860    0.5578    0.2750 C   0  0  0  0  0  0  0  0  0  0  0  0
   -0.0349    0.4309    0.8277 C   0  0  0  0  0  0  0  0  0  0  0  0
   -1.1214    0.5015   -0.2595 C   0  0  0  0  0  0  0  0  0  0  0  0
   -2.0271   -0.7253   -0.2605 C   0  0  0  0  0  0  0  0  0  0  0  0
    2.8223   -0.5381   -0.9092 H   0  0  0  0  0  0  0  0  0  0  0  0
    1.1473   -0.8269   -1.3740 H   0  0  0  0  0  0  0  0  0  0  0  0
    1.7898   -1.5550    0.0975 H   0  0  0  0  0  0  0  0  0  0  0  0
    2.0783    0.6893    1.1100 H   0  0  0  0  0  0  0  0  0  0  0  0
    1.4519    1.4504   -0.3513 H   0  0  0  0  0  0  0  0  0  0  0  0
   -0.1959    1.2254    1.5587 H   0  0  0  0  0  0  0  0  0  0  0  0
   -0.1146   -0.5186    1.3608 H   0  0  0  0  0  0  0  0  0  0  0  0
   -1.7343    1.3927   -0.1121 H   0  0  0  0  0  0  0  0  0  0  0  0
   -0.6535    0.5957   -1.2409 H   0  0  0  0  0  0  0  0  0  0  0  0
   -2.7801   -0.6435   -1.0414 H   0  0  0  0  0  0  0  0  0  0  0  0
   -2.5354   -0.8250    0.6961 H   0  0  0  0  0  0  0  0  0  0  0  0
   -1.4459   -1.6276   -0.4370 H   0  0  0  0  0  0  0  0  0  0  0  0
  1  2  1  0  0  0  0
  2  3  1  0  0  0  0
  3  4  1  0  0  0  0
  4  5  1  0  0  0  0
  1  6  1  0  0  0  0
  1  7  1  0  0  0  0
  1  8  1  0  0  0  0
  2  9  1  0  0  0  0
  2 10  1  0  0  0  0
  3 11  1  0  0  0  0
  3 12  1  0  0  0  0
  4 13  1  0  0  0  0
  4 14  1  0  0  0  0
  5 15  1  0  0  0  0
  5 16  1  0  0  0  0
  5 17  1  0  0  0  0
M  END
