 xtb: 6.7.1 (edcfbbe)
          04112511573D

 14 13  0     0  0            999 V2000
    2.2419   -0.2187   -0.0946 C   0  0  0  0  0  0  0  0  0  0  0  0
    0.8887   -0.2984    0.2904 O   0  0  0  0  0  0  0  0  0  0  0  0
    0.0886    0.7312   -0.2618 C   0  0  0  0  0  0  0  0  0  0  0  0
   -1.3469    0.5599    0.2544 C   0  0  0  0  0  0  0  0  0  0  0  0
   -1.9791   -0.6884   -0.1302 N   0  0  0  0  0  0  0  0  0  0  0  0
    2.3455   -0.3026   -1.1825 H   0  0  0  0  0  0  0  0  0  0  0  0
    2.7466   -1.0510    0.3893 H   0  0  0  0  0  0  0  0  0  0  0  0
    2.6861    0.7274    0.2339 H   0  0  0  0  0  0  0  0  0  0  0  0
    0.4821    1.7141    0.0351 H   0  0  0  0  0  0  0  0  0  0  0  0
    0.1110    0.6668   -1.3614 H   0  0  0  0  0  0  0  0  0  0  0  0
   -1.3298    0.6014    1.3455 H   0  0  0  0  0  0  0  0  0  0  0  0
   -1.9535    1.3871   -0.1210 H   0  0  0  0  0  0  0  0  0  0  0  0
   -1.4153   -1.4576    0.2175 H   0  0  0  0  0  0  0  0  0  0  0  0
   -1.9965   -0.7629   -1.1426 H   0  0  0  0  0  0  0  0  0  0  0  0
  1  2  1  0  0  0  0
  2  3  1  0  0  0  0
  3  4  1  0  0  0  0
  4  5  1  0  0  0  0
  1  6  1  0  0  0  0
  1  7  1  0  0  0  0
  1  8  1  0  0  0  0
  3  9  1  0  0  0  0
  3 10  1  0  0  0  0
  4 11  1  0  0  0  0
  4 12  1  0  0  0  0
  5 13  1  0  0  0  0
  5 14  1  0  0  0  0
M  END
