 xtb: 6.7.1 (edcfbbe)
          04112510483D

 27 27  0     0  0            999 V2000
   -4.2704   -1.9512   -1.3474 C   0  0  0  0  0  0  0  0  0  0  0  0
   -3.2982   -0.7906   -1.1763 C   0  0  0  0  0  0  0  0  0  0  0  0
   -2.4835   -0.9109    0.1155 C   0  0  0  0  0  0  0  0  0  0  0  0
   -2.0583   -1.9190    0.1713 H   0  0  0  0  0  0  0  0  0  0  0  0
   -3.3007   -0.6418    1.3739 C   0  0  0  0  0  0  0  0  0  0  0  0
   -1.3082   -0.0193    0.0683 N   0  0  0  0  0  0  0  0  0  0  0  0
   -0.0514   -0.6205    0.1214 C   0  0  0  0  0  0  0  0  0  0  0  0
    0.0718   -1.8312    0.2019 O   0  0  0  0  0  0  0  0  0  0  0  0
    1.0677    0.2952    0.0740 C   0  0  0  0  0  0  0  0  0  0  0  0
    0.9106    1.6398   -0.0167 C   0  0  0  0  0  0  0  0  0  0  0  0
   -0.3689    2.1079   -0.0629 N   0  0  0  0  0  0  0  0  0  0  0  0
   -1.5052    1.3373   -0.0262 C   0  0  0  0  0  0  0  0  0  0  0  0
   -2.5996    1.8665   -0.0765 O   0  0  0  0  0  0  0  0  0  0  0  0
    1.9909    2.6544   -0.0701 C   0  0  0  0  0  0  0  0  0  0  0  0
    2.7763   -0.5360    0.1492 Br  0  0  0  0  0  0  0  0  0  0  0  0
   -5.0251   -1.9453   -0.5669 H   0  0  0  0  0  0  0  0  0  0  0  0
   -4.7725   -1.8709   -2.3074 H   0  0  0  0  0  0  0  0  0  0  0  0
   -3.7402   -2.9002   -1.3131 H   0  0  0  0  0  0  0  0  0  0  0  0
   -2.6025   -0.7814   -2.0198 H   0  0  0  0  0  0  0  0  0  0  0  0
   -3.8415    0.1548   -1.1753 H   0  0  0  0  0  0  0  0  0  0  0  0
   -2.6632   -0.6995    2.2535 H   0  0  0  0  0  0  0  0  0  0  0  0
   -3.7576    0.3429    1.3278 H   0  0  0  0  0  0  0  0  0  0  0  0
   -4.0794   -1.3915    1.4644 H   0  0  0  0  0  0  0  0  0  0  0  0
   -0.5271    3.1087   -0.1315 H   0  0  0  0  0  0  0  0  0  0  0  0
    1.8986    3.3351    0.7739 H   0  0  0  0  0  0  0  0  0  0  0  0
    1.9048    3.2369   -0.9850 H   0  0  0  0  0  0  0  0  0  0  0  0
    2.9687    2.1845   -0.0398 H   0  0  0  0  0  0  0  0  0  0  0  0
  1  2  1  0  0  0  0
  2  3  1  0  0  0  0
  3  4  1  0  0  0  0
  3  5  1  0  0  0  0
  3  6  1  0  0  0  0
  6  7  1  0  0  0  0
  7  8  2  0  0  0  0
  7  9  1  0  0  0  0
  9 10  2  0  0  0  0
 10 11  1  0  0  0  0
  6 12  1  0  0  0  0
 11 12  1  0  0  0  0
 12 13  2  0  0  0  0
 10 14  1  0  0  0  0
  9 15  1  0  0  0  0
  1 16  1  0  0  0  0
  1 17  1  0  0  0  0
  1 18  1  0  0  0  0
  2 19  1  0  0  0  0
  2 20  1  0  0  0  0
  5 21  1  0  0  0  0
  5 22  1  0  0  0  0
  5 23  1  0  0  0  0
 11 24  1  0  0  0  0
 14 25  1  0  0  0  0
 14 26  1  0  0  0  0
 14 27  1  0  0  0  0
M  END
