 xtb: 6.7.1 (edcfbbe)
          04112511553D

 24 24  0     0  0            999 V2000
   -2.1785    0.3134   -1.1353 C   0  0  0  0  0  0  0  0  0  0  0  0
   -2.1596   -0.6032    0.0819 C   0  0  0  0  0  0  0  0  0  0  0  0
   -1.2241   -0.1743    1.2172 C   0  0  0  0  0  0  0  0  0  0  0  0
    0.2875   -0.0806    0.9458 C   0  0  0  0  0  0  0  0  0  0  0  0
    0.8964   -1.1791    0.0458 C   0  0  0  0  0  0  0  0  0  0  0  0
    1.7682   -0.4541   -0.9892 C   0  0  0  0  0  0  0  0  0  0  0  0
    2.0578    0.9062   -0.3600 C   0  0  0  0  0  0  0  0  0  0  0  0
    0.7376    1.2502    0.3209 C   0  0  0  0  0  0  0  0  0  0  0  0
   -2.9688    0.0054   -1.8171 H   0  0  0  0  0  0  0  0  0  0  0  0
   -2.3687    1.3422   -0.8371 H   0  0  0  0  0  0  0  0  0  0  0  0
   -1.2362    0.2693   -1.6732 H   0  0  0  0  0  0  0  0  0  0  0  0
   -3.1683   -0.6394    0.5026 H   0  0  0  0  0  0  0  0  0  0  0  0
   -1.9166   -1.6185   -0.2370 H   0  0  0  0  0  0  0  0  0  0  0  0
   -1.5498    0.8023    1.5848 H   0  0  0  0  0  0  0  0  0  0  0  0
   -1.3736   -0.8899    2.0305 H   0  0  0  0  0  0  0  0  0  0  0  0
    0.7717   -0.1469    1.9268 H   0  0  0  0  0  0  0  0  0  0  0  0
    1.5042   -1.8566    0.6460 H   0  0  0  0  0  0  0  0  0  0  0  0
    0.1328   -1.7773   -0.4444 H   0  0  0  0  0  0  0  0  0  0  0  0
    2.6766   -1.0081   -1.2223 H   0  0  0  0  0  0  0  0  0  0  0  0
    1.2127   -0.3137   -1.9180 H   0  0  0  0  0  0  0  0  0  0  0  0
    2.8495    0.8121    0.3854 H   0  0  0  0  0  0  0  0  0  0  0  0
    2.3610    1.6516   -1.0941 H   0  0  0  0  0  0  0  0  0  0  0  0
    0.8462    2.0299    1.0746 H   0  0  0  0  0  0  0  0  0  0  0  0
    0.0200    1.5938   -0.4206 H   0  0  0  0  0  0  0  0  0  0  0  0
  1  2  1  0  0  0  0
  2  3  1  0  0  0  0
  3  4  1  0  0  0  0
  4  5  1  0  0  0  0
  5  6  1  0  0  0  0
  6  7  1  0  0  0  0
  4  8  1  0  0  0  0
  7  8  1  0  0  0  0
  1  9  1  0  0  0  0
  1 10  1  0  0  0  0
  1 11  1  0  0  0  0
  2 12  1  0  0  0  0
  2 13  1  0  0  0  0
  3 14  1  0  0  0  0
  3 15  1  0  0  0  0
  4 16  1  0  0  0  0
  5 17  1  0  0  0  0
  5 18  1  0  0  0  0
  6 19  1  0  0  0  0
  6 20  1  0  0  0  0
  7 21  1  0  0  0  0
  7 22  1  0  0  0  0
  8 23  1  0  0  0  0
  8 24  1  0  0  0  0
M  END
