 xtb: 6.7.1 (edcfbbe)
          04112511493D

 21 20  0     0  0            999 V2000
    1.8032    0.8317   -1.0481 C   0  0  0  0  0  0  0  0  0  0  0  0
    1.4414   -0.2190    0.0199 C   0  0  0  0  0  0  0  0  0  0  0  0
    2.2136   -0.9974    0.0186 H   0  0  0  0  0  0  0  0  0  0  0  0
    0.0898   -0.9199   -0.2401 C   0  0  0  0  0  0  0  0  0  0  0  0
   -1.1687   -0.1877    0.2472 C   0  0  0  0  0  0  0  0  0  0  0  0
   -1.4290    1.1299   -0.4806 C   0  0  0  0  0  0  0  0  0  0  0  0
   -2.3765   -1.1099    0.0736 C   0  0  0  0  0  0  0  0  0  0  0  0
    1.5246    0.3124    1.3316 O   0  0  0  0  0  0  0  0  0  0  0  0
    2.6898    0.5267   -1.5963 H   0  0  0  0  0  0  0  0  0  0  0  0
    0.9969    0.9723   -1.7594 H   0  0  0  0  0  0  0  0  0  0  0  0
    2.0221    1.7849   -0.5723 H   0  0  0  0  0  0  0  0  0  0  0  0
    0.0108   -1.1185   -1.3099 H   0  0  0  0  0  0  0  0  0  0  0  0
    0.1185   -1.8839    0.2735 H   0  0  0  0  0  0  0  0  0  0  0  0
   -1.0548    0.0134    1.3184 H   0  0  0  0  0  0  0  0  0  0  0  0
   -0.6334    1.8499   -0.3139 H   0  0  0  0  0  0  0  0  0  0  0  0
   -2.3592    1.5689   -0.1253 H   0  0  0  0  0  0  0  0  0  0  0  0
   -1.5241    0.9579   -1.5510 H   0  0  0  0  0  0  0  0  0  0  0  0
   -2.2360   -2.0392    0.6206 H   0  0  0  0  0  0  0  0  0  0  0  0
   -3.2785   -0.6279    0.4436 H   0  0  0  0  0  0  0  0  0  0  0  0
   -2.5218   -1.3491   -0.9776 H   0  0  0  0  0  0  0  0  0  0  0  0
    0.8959    1.0428    1.4115 H   0  0  0  0  0  0  0  0  0  0  0  0
  1  2  1  0  0  0  0
  2  3  1  0  0  0  0
  2  4  1  0  0  0  0
  4  5  1  0  0  0  0
  5  6  1  0  0  0  0
  5  7  1  0  0  0  0
  2  8  1  0  0  0  0
  1  9  1  0  0  0  0
  1 10  1  0  0  0  0
  1 11  1  0  0  0  0
  4 12  1  0  0  0  0
  4 13  1  0  0  0  0
  5 14  1  0  0  0  0
  6 15  1  0  0  0  0
  6 16  1  0  0  0  0
  6 17  1  0  0  0  0
  7 18  1  0  0  0  0
  7 19  1  0  0  0  0
  7 20  1  0  0  0  0
  8 21  1  0  0  0  0
M  END
