 xtb: 6.7.1 (edcfbbe)
          04112510353D

 18 17  0     0  0            999 V2000
   -2.0757    0.4103    0.6894 C   0  0  0  0  0  0  0  0  0  0  0  0
   -1.5261    0.1787   -0.7131 C   0  0  0  0  0  0  0  0  0  0  0  0
   -0.2529   -0.6677   -0.6990 C   0  0  0  0  0  0  0  0  0  0  0  0
    0.9384   -0.0546   -0.0063 C   0  0  0  0  0  0  0  0  0  0  0  0
    1.1647    1.2464    0.0802 C   0  0  0  0  0  0  0  0  0  0  0  0
    1.8978   -1.0577    0.5629 C   0  0  0  0  0  0  0  0  0  0  0  0
   -2.9811    1.0111    0.6504 H   0  0  0  0  0  0  0  0  0  0  0  0
   -1.3427    0.9272    1.3040 H   0  0  0  0  0  0  0  0  0  0  0  0
   -2.3133   -0.5388    1.1649 H   0  0  0  0  0  0  0  0  0  0  0  0
   -2.2781   -0.3414   -1.3110 H   0  0  0  0  0  0  0  0  0  0  0  0
   -1.3323    1.1369   -1.1967 H   0  0  0  0  0  0  0  0  0  0  0  0
   -0.4763   -1.6243   -0.2198 H   0  0  0  0  0  0  0  0  0  0  0  0
    0.0372   -0.8869   -1.7319 H   0  0  0  0  0  0  0  0  0  0  0  0
    2.0443    1.6311    0.5694 H   0  0  0  0  0  0  0  0  0  0  0  0
    0.4956    1.9851   -0.3245 H   0  0  0  0  0  0  0  0  0  0  0  0
    1.4225   -1.6126    1.3712 H   0  0  0  0  0  0  0  0  0  0  0  0
    2.1904   -1.7736   -0.2039 H   0  0  0  0  0  0  0  0  0  0  0  0
    2.7895   -0.5729    0.9509 H   0  0  0  0  0  0  0  0  0  0  0  0
  1  2  1  0  0  0  0
  2  3  1  0  0  0  0
  3  4  1  0  0  0  0
  4  5  2  0  0  0  0
  4  6  1  0  0  0  0
  1  7  1  0  0  0  0
  1  8  1  0  0  0  0
  1  9  1  0  0  0  0
  2 10  1  0  0  0  0
  2 11  1  0  0  0  0
  3 12  1  0  0  0  0
  3 13  1  0  0  0  0
  5 14  1  0  0  0  0
  5 15  1  0  0  0  0
  6 16  1  0  0  0  0
  6 17  1  0  0  0  0
  6 18  1  0  0  0  0
M  END
