 xtb: 6.7.1 (edcfbbe)
          04112511193D

 14 13  0     0  0            999 V2000
   -1.3533   -0.3945   -0.4061 C   0  0  0  0  0  0  0  0  0  0  0  0
    0.0056   -0.0731    0.2291 C   0  0  0  0  0  0  0  0  0  0  0  0
    1.1537   -0.7415   -0.5342 C   0  0  0  0  0  0  0  0  0  0  0  0
    2.3884   -0.5647    0.1146 O   0  0  0  0  0  0  0  0  0  0  0  0
    0.2382    1.3228    0.2217 O   0  0  0  0  0  0  0  0  0  0  0  0
   -2.3978    0.2788    0.2592 O   0  0  0  0  0  0  0  0  0  0  0  0
   -1.5153   -1.4767   -0.4182 H   0  0  0  0  0  0  0  0  0  0  0  0
   -1.3664   -0.0227   -1.4334 H   0  0  0  0  0  0  0  0  0  0  0  0
    0.0215   -0.4322    1.2719 H   0  0  0  0  0  0  0  0  0  0  0  0
    1.1913   -0.3269   -1.5500 H   0  0  0  0  0  0  0  0  0  0  0  0
    0.9894   -1.8187   -0.5904 H   0  0  0  0  0  0  0  0  0  0  0  0
    2.5203    0.3855    0.2501 H   0  0  0  0  0  0  0  0  0  0  0  0
   -0.6094    1.7696    0.3696 H   0  0  0  0  0  0  0  0  0  0  0  0
   -2.5511   -0.1308    1.1224 H   0  0  0  0  0  0  0  0  0  0  0  0
  1  2  1  0  0  0  0
  2  3  1  0  0  0  0
  3  4  1  0  0  0  0
  2  5  1  0  0  0  0
  1  6  1  0  0  0  0
  1  7  1  0  0  0  0
  1  8  1  0  0  0  0
  2  9  1  0  0  0  0
  3 10  1  0  0  0  0
  3 11  1  0  0  0  0
  4 12  1  0  0  0  0
  5 13  1  0  0  0  0
  6 14  1  0  0  0  0
M  END
