 xtb: 6.7.1 (edcfbbe)
          04112511523D

 18 17  0     0  0            999 V2000
    1.4544   -1.3959   -0.1032 C   0  0  0  0  0  0  0  0  0  0  0  0
    1.0838    0.0170    0.3438 C   0  0  0  0  0  0  0  0  0  0  0  0
    2.1832    0.9973   -0.0644 C   0  0  0  0  0  0  0  0  0  0  0  0
   -0.2554    0.4675   -0.2491 C   0  0  0  0  0  0  0  0  0  0  0  0
   -1.4524   -0.3298    0.2714 C   0  0  0  0  0  0  0  0  0  0  0  0
   -2.6898    0.2468   -0.0976 O   0  0  0  0  0  0  0  0  0  0  0  0
    0.7311   -2.1228    0.2557 H   0  0  0  0  0  0  0  0  0  0  0  0
    2.4310   -1.6682    0.2896 H   0  0  0  0  0  0  0  0  0  0  0  0
    1.4949   -1.4509   -1.1888 H   0  0  0  0  0  0  0  0  0  0  0  0
    0.9975    0.0264    1.4362 H   0  0  0  0  0  0  0  0  0  0  0  0
    2.2920    1.0137   -1.1465 H   0  0  0  0  0  0  0  0  0  0  0  0
    3.1348    0.7041    0.3717 H   0  0  0  0  0  0  0  0  0  0  0  0
    1.9468    2.0034    0.2731 H   0  0  0  0  0  0  0  0  0  0  0  0
   -0.2111    0.3881   -1.3382 H   0  0  0  0  0  0  0  0  0  0  0  0
   -0.4224    1.5170    0.0050 H   0  0  0  0  0  0  0  0  0  0  0  0
   -1.4102   -1.3691   -0.0776 H   0  0  0  0  0  0  0  0  0  0  0  0
   -1.4534   -0.3331    1.3646 H   0  0  0  0  0  0  0  0  0  0  0  0
   -2.7449    0.2793   -1.0627 H   0  0  0  0  0  0  0  0  0  0  0  0
  1  2  1  0  0  0  0
  2  3  1  0  0  0  0
  2  4  1  0  0  0  0
  4  5  1  0  0  0  0
  5  6  1  0  0  0  0
  1  7  1  0  0  0  0
  1  8  1  0  0  0  0
  1  9  1  0  0  0  0
  2 10  1  0  0  0  0
  3 11  1  0  0  0  0
  3 12  1  0  0  0  0
  3 13  1  0  0  0  0
  4 14  1  0  0  0  0
  4 15  1  0  0  0  0
  5 16  1  0  0  0  0
  5 17  1  0  0  0  0
  6 18  1  0  0  0  0
M  END
