 xtb: 6.7.1 (edcfbbe)
          04072508503D

 19 19  0     0  0            999 V2000
   -2.6001    0.3319    0.2019 C   0  0  0  0  0  0  0  0  0  0  0  0
   -2.2205   -0.9833    0.4131 C   0  0  0  0  0  0  0  0  0  0  0  0
   -0.9072   -1.3645    0.2123 C   0  0  0  0  0  0  0  0  0  0  0  0
    0.0509   -0.4458   -0.2074 C   0  0  0  0  0  0  0  0  0  0  0  0
   -0.3409    0.8692   -0.4161 C   0  0  0  0  0  0  0  0  0  0  0  0
   -1.6556    1.2544   -0.2105 C   0  0  0  0  0  0  0  0  0  0  0  0
    1.4617   -0.9307   -0.4315 C   0  0  0  0  0  0  0  0  0  0  0  0
    2.5426    0.1527   -0.4398 C   0  0  0  0  0  0  0  0  0  0  0  0
    2.5630    0.9508    0.7239 O   0  0  0  0  0  0  0  0  0  0  0  0
   -3.6242    0.6350    0.3611 H   0  0  0  0  0  0  0  0  0  0  0  0
   -2.9488   -1.7118    0.7379 H   0  0  0  0  0  0  0  0  0  0  0  0
   -0.6176   -2.3922    0.3811 H   0  0  0  0  0  0  0  0  0  0  0  0
    0.3793    1.6095   -0.7257 H   0  0  0  0  0  0  0  0  0  0  0  0
   -1.9408    2.2833   -0.3740 H   0  0  0  0  0  0  0  0  0  0  0  0
    1.7003   -1.6669    0.3408 H   0  0  0  0  0  0  0  0  0  0  0  0
    1.5056   -1.4469   -1.3946 H   0  0  0  0  0  0  0  0  0  0  0  0
    3.5212   -0.3278   -0.5835 H   0  0  0  0  0  0  0  0  0  0  0  0
    2.3878    0.8475   -1.2682 H   0  0  0  0  0  0  0  0  0  0  0  0
    2.6766    0.3791    1.4955 H   0  0  0  0  0  0  0  0  0  0  0  0
  1  2  4  0  0  0  0
  2  3  4  0  0  0  0
  3  4  4  0  0  0  0
  4  5  4  0  0  0  0
  1  6  4  0  0  0  0
  5  6  4  0  0  0  0
  4  7  1  0  0  0  0
  7  8  1  0  0  0  0
  8  9  1  0  0  0  0
  1 10  1  0  0  0  0
  2 11  1  0  0  0  0
  3 12  1  0  0  0  0
  5 13  1  0  0  0  0
  6 14  1  0  0  0  0
  7 15  1  0  0  0  0
  7 16  1  0  0  0  0
  8 17  1  0  0  0  0
  8 18  1  0  0  0  0
  9 19  1  0  0  0  0
M  END
