 xtb: 6.7.1 (edcfbbe)
          04112511493D

 17 16  0     0  0            999 V2000
   -3.1034    0.7126    0.0093 C   0  0  0  0  0  0  0  0  0  0  0  0
   -1.6707    0.4791   -0.4523 C   0  0  0  0  0  0  0  0  0  0  0  0
   -0.8604   -0.2730    0.6145 C   0  0  0  0  0  0  0  0  0  0  0  0
    0.5351   -0.5053    0.1034 C   0  0  0  0  0  0  0  0  0  0  0  0
    0.8976   -1.4951   -0.4989 O   0  0  0  0  0  0  0  0  0  0  0  0
    1.3220    0.5311    0.3625 O   0  0  0  0  0  0  0  0  0  0  0  0
    2.6767    0.5119   -0.0984 C   0  0  0  0  0  0  0  0  0  0  0  0
   -3.6602    1.2470   -0.7555 H   0  0  0  0  0  0  0  0  0  0  0  0
   -3.6014   -0.2345    0.2004 H   0  0  0  0  0  0  0  0  0  0  0  0
   -3.1175    1.3012    0.9228 H   0  0  0  0  0  0  0  0  0  0  0  0
   -1.1876    1.4367   -0.6550 H   0  0  0  0  0  0  0  0  0  0  0  0
   -1.6691   -0.1039   -1.3756 H   0  0  0  0  0  0  0  0  0  0  0  0
   -1.3240   -1.2381    0.8164 H   0  0  0  0  0  0  0  0  0  0  0  0
   -0.8133    0.3220    1.5256 H   0  0  0  0  0  0  0  0  0  0  0  0
    2.9235   -0.4792   -0.4805 H   0  0  0  0  0  0  0  0  0  0  0  0
    3.3081    0.7681    0.7492 H   0  0  0  0  0  0  0  0  0  0  0  0
    2.7795    1.2561   -0.8868 H   0  0  0  0  0  0  0  0  0  0  0  0
  1  2  1  0  0  0  0
  2  3  1  0  0  0  0
  3  4  1  0  0  0  0
  4  5  2  0  0  0  0
  4  6  1  0  0  0  0
  6  7  1  0  0  0  0
  1  8  1  0  0  0  0
  1  9  1  0  0  0  0
  1 10  1  0  0  0  0
  2 11  1  0  0  0  0
  2 12  1  0  0  0  0
  3 13  1  0  0  0  0
  3 14  1  0  0  0  0
  7 15  1  0  0  0  0
  7 16  1  0  0  0  0
  7 17  1  0  0  0  0
M  END
