 xtb: 6.7.1 (edcfbbe)
          04112512083D

 17 16  0     0  0            999 V2000
   -2.1435   -0.5014    0.9408 C   0  0  0  0  0  0  0  0  0  0  0  0
   -2.0888    0.5795   -0.1325 C   0  0  0  0  0  0  0  0  0  0  0  0
   -0.8430    0.4607   -1.0059 C   0  0  0  0  0  0  0  0  0  0  0  0
    0.3341    0.7577   -0.2406 O   0  0  0  0  0  0  0  0  0  0  0  0
    1.2198   -0.2017   -0.0044 C   0  0  0  0  0  0  0  0  0  0  0  0
    1.1170   -1.3370   -0.4234 O   0  0  0  0  0  0  0  0  0  0  0  0
    2.3598    0.2995    0.8317 C   0  0  0  0  0  0  0  0  0  0  0  0
   -1.2921   -0.4170    1.6132 H   0  0  0  0  0  0  0  0  0  0  0  0
   -3.0534   -0.4067    1.5266 H   0  0  0  0  0  0  0  0  0  0  0  0
   -2.1209   -1.4905    0.4881 H   0  0  0  0  0  0  0  0  0  0  0  0
   -2.0940    1.5650    0.3351 H   0  0  0  0  0  0  0  0  0  0  0  0
   -2.9593    0.4997   -0.7835 H   0  0  0  0  0  0  0  0  0  0  0  0
   -0.7460   -0.5487   -1.4176 H   0  0  0  0  0  0  0  0  0  0  0  0
   -0.8666    1.1930   -1.8160 H   0  0  0  0  0  0  0  0  0  0  0  0
    2.1990    1.3397    1.0927 H   0  0  0  0  0  0  0  0  0  0  0  0
    3.2839    0.1875    0.2703 H   0  0  0  0  0  0  0  0  0  0  0  0
    2.4386   -0.3124    1.7265 H   0  0  0  0  0  0  0  0  0  0  0  0
  1  2  1  0  0  0  0
  2  3  1  0  0  0  0
  3  4  1  0  0  0  0
  4  5  1  0  0  0  0
  5  6  2  0  0  0  0
  5  7  1  0  0  0  0
  1  8  1  0  0  0  0
  1  9  1  0  0  0  0
  1 10  1  0  0  0  0
  2 11  1  0  0  0  0
  2 12  1  0  0  0  0
  3 13  1  0  0  0  0
  3 14  1  0  0  0  0
  7 15  1  0  0  0  0
  7 16  1  0  0  0  0
  7 17  1  0  0  0  0
M  END
