 xtb: 6.7.1 (edcfbbe)
          04112511013D

 20 19  0     0  0            999 V2000
   -1.8550   -1.2412   -0.2743 C   0  0  0  0  0  0  0  0  0  0  0  0
   -1.2068   -0.0875    0.4828 C   0  0  0  0  0  0  0  0  0  0  0  0
   -0.1397    0.6592   -0.3266 C   0  0  0  0  0  0  0  0  0  0  0  0
    0.3509    1.8733    0.4630 C   0  0  0  0  0  0  0  0  0  0  0  0
    1.0323   -0.2308   -0.7675 C   0  0  0  0  0  0  0  0  0  0  0  0
    1.7909   -0.9125    0.3664 C   0  0  0  0  0  0  0  0  0  0  0  0
   -2.6774   -1.6542    0.3054 H   0  0  0  0  0  0  0  0  0  0  0  0
   -2.2477   -0.8969   -1.2288 H   0  0  0  0  0  0  0  0  0  0  0  0
   -1.1413   -2.0385   -0.4631 H   0  0  0  0  0  0  0  0  0  0  0  0
   -0.7687   -0.4590    1.4106 H   0  0  0  0  0  0  0  0  0  0  0  0
   -1.9836    0.6309    0.7570 H   0  0  0  0  0  0  0  0  0  0  0  0
   -0.6163    1.0275   -1.2441 H   0  0  0  0  0  0  0  0  0  0  0  0
   -0.4696    2.5648    0.6406 H   0  0  0  0  0  0  0  0  0  0  0  0
    1.1288    2.3986   -0.0863 H   0  0  0  0  0  0  0  0  0  0  0  0
    0.7512    1.5715    1.4275 H   0  0  0  0  0  0  0  0  0  0  0  0
    0.6576   -0.9946   -1.4515 H   0  0  0  0  0  0  0  0  0  0  0  0
    1.7313    0.3910   -1.3328 H   0  0  0  0  0  0  0  0  0  0  0  0
    1.1465   -1.5935    0.9158 H   0  0  0  0  0  0  0  0  0  0  0  0
    2.1964   -0.1814    1.0603 H   0  0  0  0  0  0  0  0  0  0  0  0
    2.6195   -1.4876   -0.0409 H   0  0  0  0  0  0  0  0  0  0  0  0
  1  2  1  0  0  0  0
  2  3  1  0  0  0  0
  3  4  1  0  0  0  0
  3  5  1  0  0  0  0
  5  6  1  0  0  0  0
  1  7  1  0  0  0  0
  1  8  1  0  0  0  0
  1  9  1  0  0  0  0
  2 10  1  0  0  0  0
  2 11  1  0  0  0  0
  3 12  1  0  0  0  0
  4 13  1  0  0  0  0
  4 14  1  0  0  0  0
  4 15  1  0  0  0  0
  5 16  1  0  0  0  0
  5 17  1  0  0  0  0
  6 18  1  0  0  0  0
  6 19  1  0  0  0  0
  6 20  1  0  0  0  0
M  END
