 xtb: 6.7.1 (edcfbbe)
          04112512203D

 18 17  0     0  0            999 V2000
   -1.4120    1.5896    0.0178 C   0  0  0  0  0  0  0  0  0  0  0  0
   -1.3851    0.0879   -0.2481 C   0  0  0  0  0  0  0  0  0  0  0  0
   -0.1200   -0.6180    0.2564 C   0  0  0  0  0  0  0  0  0  0  0  0
   -0.0255   -0.4514    1.3357 H   0  0  0  0  0  0  0  0  0  0  0  0
   -0.2404   -2.1208    0.0047 C   0  0  0  0  0  0  0  0  0  0  0  0
    1.1610   -0.0730   -0.4011 C   0  0  0  0  0  0  0  0  0  0  0  0
    1.8019    0.9394    0.3479 O   0  0  0  0  0  0  0  0  0  0  0  0
   -1.2436    1.7946    1.0729 H   0  0  0  0  0  0  0  0  0  0  0  0
   -0.6600    2.1071   -0.5732 H   0  0  0  0  0  0  0  0  0  0  0  0
   -2.3827    1.9971   -0.2552 H   0  0  0  0  0  0  0  0  0  0  0  0
   -1.4836   -0.0910   -1.3215 H   0  0  0  0  0  0  0  0  0  0  0  0
   -2.2470   -0.3703    0.2417 H   0  0  0  0  0  0  0  0  0  0  0  0
   -1.1441   -2.5110    0.4660 H   0  0  0  0  0  0  0  0  0  0  0  0
    0.6135   -2.6495    0.4204 H   0  0  0  0  0  0  0  0  0  0  0  0
   -0.2848   -2.3211   -1.0635 H   0  0  0  0  0  0  0  0  0  0  0  0
    0.9442    0.2849   -1.4169 H   0  0  0  0  0  0  0  0  0  0  0  0
    1.9073   -0.8677   -0.4757 H   0  0  0  0  0  0  0  0  0  0  0  0
    1.1951    1.6839    0.4586 H   0  0  0  0  0  0  0  0  0  0  0  0
  1  2  1  0  0  0  0
  2  3  1  0  0  0  0
  3  4  1  0  0  0  0
  3  5  1  0  0  0  0
  3  6  1  0  0  0  0
  6  7  1  0  0  0  0
  1  8  1  0  0  0  0
  1  9  1  0  0  0  0
  1 10  1  0  0  0  0
  2 11  1  0  0  0  0
  2 12  1  0  0  0  0
  5 13  1  0  0  0  0
  5 14  1  0  0  0  0
  5 15  1  0  0  0  0
  6 16  1  0  0  0  0
  6 17  1  0  0  0  0
  7 18  1  0  0  0  0
M  END
