 xtb: 6.7.1 (edcfbbe)
          04112511103D

 18 17  0     0  0            999 V2000
    1.8647   -0.2883    0.8981 C   0  0  0  0  0  0  0  0  0  0  0  0
    1.5314    0.2231   -0.4979 C   0  0  0  0  0  0  0  0  0  0  0  0
    0.2463   -0.3538   -1.0997 C   0  0  0  0  0  0  0  0  0  0  0  0
   -1.0662    0.0033   -0.3634 C   0  0  0  0  0  0  0  0  0  0  0  0
   -1.8774    0.0051   -1.1121 H   0  0  0  0  0  0  0  0  0  0  0  0
   -1.4469   -1.0181    0.7064 C   0  0  0  0  0  0  0  0  0  0  0  0
   -1.0207    1.2784    0.2555 O   0  0  0  0  0  0  0  0  0  0  0  0
    2.8578    0.0478    1.1886 H   0  0  0  0  0  0  0  0  0  0  0  0
    1.8482   -1.3756    0.9253 H   0  0  0  0  0  0  0  0  0  0  0  0
    1.1536    0.0979    1.6234 H   0  0  0  0  0  0  0  0  0  0  0  0
    1.4616    1.3117   -0.4631 H   0  0  0  0  0  0  0  0  0  0  0  0
    2.3505   -0.0324   -1.1749 H   0  0  0  0  0  0  0  0  0  0  0  0
    0.1751    0.0104   -2.1278 H   0  0  0  0  0  0  0  0  0  0  0  0
    0.3233   -1.4408   -1.1421 H   0  0  0  0  0  0  0  0  0  0  0  0
   -2.3685   -0.7013    1.1886 H   0  0  0  0  0  0  0  0  0  0  0  0
   -1.6016   -1.9904    0.2484 H   0  0  0  0  0  0  0  0  0  0  0  0
   -0.6739   -1.0956    1.4622 H   0  0  0  0  0  0  0  0  0  0  0  0
   -0.9036    1.9555   -0.4230 H   0  0  0  0  0  0  0  0  0  0  0  0
  1  2  1  0  0  0  0
  2  3  1  0  0  0  0
  3  4  1  0  0  0  0
  4  5  1  0  0  0  0
  4  6  1  0  0  0  0
  4  7  1  0  0  0  0
  1  8  1  0  0  0  0
  1  9  1  0  0  0  0
  1 10  1  0  0  0  0
  2 11  1  0  0  0  0
  2 12  1  0  0  0  0
  3 13  1  0  0  0  0
  3 14  1  0  0  0  0
  6 15  1  0  0  0  0
  6 16  1  0  0  0  0
  6 17  1  0  0  0  0
  7 18  1  0  0  0  0
M  END
