 xtb: 6.7.1 (edcfbbe)
          04112512143D

 21 20  0     0  0            999 V2000
    2.7189   -0.3551    0.2579 C   0  0  0  0  0  0  0  0  0  0  0  0
    1.3359   -0.7235   -0.2736 C   0  0  0  0  0  0  0  0  0  0  0  0
    0.2357    0.2279    0.2186 C   0  0  0  0  0  0  0  0  0  0  0  0
    0.2048    0.1928    1.3209 H   0  0  0  0  0  0  0  0  0  0  0  0
   -1.1596   -0.1421   -0.3192 C   0  0  0  0  0  0  0  0  0  0  0  0
   -1.5513   -1.5823    0.0013 C   0  0  0  0  0  0  0  0  0  0  0  0
   -2.2000    0.8179    0.2593 C   0  0  0  0  0  0  0  0  0  0  0  0
    0.4854    1.5623   -0.1977 O   0  0  0  0  0  0  0  0  0  0  0  0
    3.4383   -1.1188   -0.0259 H   0  0  0  0  0  0  0  0  0  0  0  0
    2.7042   -0.2863    1.3440 H   0  0  0  0  0  0  0  0  0  0  0  0
    3.0608    0.5921   -0.1523 H   0  0  0  0  0  0  0  0  0  0  0  0
    1.3457   -0.7082   -1.3652 H   0  0  0  0  0  0  0  0  0  0  0  0
    1.0923   -1.7321    0.0564 H   0  0  0  0  0  0  0  0  0  0  0  0
   -1.1301   -0.0053   -1.4053 H   0  0  0  0  0  0  0  0  0  0  0  0
   -2.5942   -1.7404   -0.2614 H   0  0  0  0  0  0  0  0  0  0  0  0
   -0.9524   -2.2949   -0.5579 H   0  0  0  0  0  0  0  0  0  0  0  0
   -1.4325   -1.7793    1.0646 H   0  0  0  0  0  0  0  0  0  0  0  0
   -1.9070    1.8460    0.0654 H   0  0  0  0  0  0  0  0  0  0  0  0
   -2.2856    0.6760    1.3346 H   0  0  0  0  0  0  0  0  0  0  0  0
   -3.1718    0.6397   -0.1938 H   0  0  0  0  0  0  0  0  0  0  0  0
    1.3158    1.8607    0.1945 H   0  0  0  0  0  0  0  0  0  0  0  0
  1  2  1  0  0  0  0
  2  3  1  0  0  0  0
  3  4  1  0  0  0  0
  3  5  1  0  0  0  0
  5  6  1  0  0  0  0
  5  7  1  0  0  0  0
  3  8  1  0  0  0  0
  1  9  1  0  0  0  0
  1 10  1  0  0  0  0
  1 11  1  0  0  0  0
  2 12  1  0  0  0  0
  2 13  1  0  0  0  0
  5 14  1  0  0  0  0
  6 15  1  0  0  0  0
  6 16  1  0  0  0  0
  6 17  1  0  0  0  0
  7 18  1  0  0  0  0
  7 19  1  0  0  0  0
  7 20  1  0  0  0  0
  8 21  1  0  0  0  0
M  END
