 xtb: 6.7.1 (edcfbbe)
          04112512083D

 17 16  0     0  0            999 V2000
   -2.1562   -0.4322   -0.9236 C   0  0  0  0  0  0  0  0  0  0  0  0
   -2.0730    0.5657    0.2255 C   0  0  0  0  0  0  0  0  0  0  0  0
   -0.8169    0.3706    1.0704 C   0  0  0  0  0  0  0  0  0  0  0  0
    0.3533    0.7392    0.3260 O   0  0  0  0  0  0  0  0  0  0  0  0
    1.2139   -0.2009   -0.0462 C   0  0  0  0  0  0  0  0  0  0  0  0
    1.0948   -1.3769    0.2299 O   0  0  0  0  0  0  0  0  0  0  0  0
    2.3445    0.3836   -0.8405 C   0  0  0  0  0  0  0  0  0  0  0  0
   -3.0687   -0.2786   -1.4925 H   0  0  0  0  0  0  0  0  0  0  0  0
   -1.3087   -0.3158   -1.5965 H   0  0  0  0  0  0  0  0  0  0  0  0
   -2.1482   -1.4520   -0.5448 H   0  0  0  0  0  0  0  0  0  0  0  0
   -2.9356    0.4469    0.8810 H   0  0  0  0  0  0  0  0  0  0  0  0
   -2.0732    1.5834   -0.1672 H   0  0  0  0  0  0  0  0  0  0  0  0
   -0.8320    1.0273    1.9428 H   0  0  0  0  0  0  0  0  0  0  0  0
   -0.7155   -0.6718    1.3881 H   0  0  0  0  0  0  0  0  0  0  0  0
    3.0904   -0.3809   -1.0298 H   0  0  0  0  0  0  0  0  0  0  0  0
    2.7771    1.2158   -0.2931 H   0  0  0  0  0  0  0  0  0  0  0  0
    1.9562    0.7641   -1.7819 H   0  0  0  0  0  0  0  0  0  0  0  0
  1  2  1  0  0  0  0
  2  3  1  0  0  0  0
  3  4  1  0  0  0  0
  4  5  1  0  0  0  0
  5  6  2  0  0  0  0
  5  7  1  0  0  0  0
  1  8  1  0  0  0  0
  1  9  1  0  0  0  0
  1 10  1  0  0  0  0
  2 11  1  0  0  0  0
  2 12  1  0  0  0  0
  3 13  1  0  0  0  0
  3 14  1  0  0  0  0
  7 15  1  0  0  0  0
  7 16  1  0  0  0  0
  7 17  1  0  0  0  0
M  END
