 xtb: 6.7.1 (edcfbbe)
          04112511243D

 20 19  0     0  0            999 V2000
   -0.4001   -2.3921    0.7581 C   0  0  0  0  0  0  0  0  0  0  0  0
    0.0790   -1.3261   -0.2123 C   0  0  0  0  0  0  0  0  0  0  0  0
    1.0756   -0.5682    0.4481 O   0  0  0  0  0  0  0  0  0  0  0  0
    1.6336    0.4795   -0.1775 C   0  0  0  0  0  0  0  0  0  0  0  0
    1.3536    0.7937   -1.3120 O   0  0  0  0  0  0  0  0  0  0  0  0
    2.6046    1.1791    0.7148 C   0  0  0  0  0  0  0  0  0  0  0  0
   -1.0012   -0.5323   -0.6951 O   0  0  0  0  0  0  0  0  0  0  0  0
   -1.5298    0.4630    0.0285 C   0  0  0  0  0  0  0  0  0  0  0  0
   -1.1326    0.7902    1.1239 O   0  0  0  0  0  0  0  0  0  0  0  0
   -2.6642    1.1063   -0.7050 C   0  0  0  0  0  0  0  0  0  0  0  0
    0.4396   -3.0180    1.0393 H   0  0  0  0  0  0  0  0  0  0  0  0
   -1.1691   -2.9907    0.2812 H   0  0  0  0  0  0  0  0  0  0  0  0
   -0.8017   -1.9102    1.6459 H   0  0  0  0  0  0  0  0  0  0  0  0
    0.4985   -1.7557   -1.1331 H   0  0  0  0  0  0  0  0  0  0  0  0
    3.1951    1.8813    0.1362 H   0  0  0  0  0  0  0  0  0  0  0  0
    2.0369    1.7119    1.4755 H   0  0  0  0  0  0  0  0  0  0  0  0
    3.2338    0.4488    1.2139 H   0  0  0  0  0  0  0  0  0  0  0  0
   -2.7479    0.6865   -1.7009 H   0  0  0  0  0  0  0  0  0  0  0  0
   -3.5802    0.9380   -0.1435 H   0  0  0  0  0  0  0  0  0  0  0  0
   -2.4928    2.1784   -0.7525 H   0  0  0  0  0  0  0  0  0  0  0  0
  1  2  1  0  0  0  0
  2  3  1  0  0  0  0
  3  4  1  0  0  0  0
  4  5  2  0  0  0  0
  4  6  1  0  0  0  0
  2  7  1  0  0  0  0
  7  8  1  0  0  0  0
  8  9  2  0  0  0  0
  8 10  1  0  0  0  0
  1 11  1  0  0  0  0
  1 12  1  0  0  0  0
  1 13  1  0  0  0  0
  2 14  1  0  0  0  0
  6 15  1  0  0  0  0
  6 16  1  0  0  0  0
  6 17  1  0  0  0  0
 10 18  1  0  0  0  0
 10 19  1  0  0  0  0
 10 20  1  0  0  0  0
M  END
