 xtb: 6.7.1 (edcfbbe)
          04112511233D

 24 24  0     0  0            999 V2000
    2.5310    1.5660    0.4099 C   0  0  0  0  0  0  0  0  0  0  0  0
    2.1280    0.2798   -0.3112 C   0  0  0  0  0  0  0  0  0  0  0  0
    3.3780   -0.5479   -0.6108 C   0  0  0  0  0  0  0  0  0  0  0  0
    1.1340   -0.5443    0.5246 C   0  0  0  0  0  0  0  0  0  0  0  0
   -0.3262   -0.3113    0.2364 C   0  0  0  0  0  0  0  0  0  0  0  0
   -0.8259    0.8889   -0.2528 C   0  0  0  0  0  0  0  0  0  0  0  0
   -2.1808    1.0505   -0.4903 C   0  0  0  0  0  0  0  0  0  0  0  0
   -3.0645    0.0162   -0.2399 C   0  0  0  0  0  0  0  0  0  0  0  0
   -2.5813   -1.1847    0.2520 C   0  0  0  0  0  0  0  0  0  0  0  0
   -1.2278   -1.3429    0.4847 C   0  0  0  0  0  0  0  0  0  0  0  0
    3.0968    1.3274    1.3086 H   0  0  0  0  0  0  0  0  0  0  0  0
    1.6606    2.1469    0.7035 H   0  0  0  0  0  0  0  0  0  0  0  0
    3.1563    2.1829   -0.2321 H   0  0  0  0  0  0  0  0  0  0  0  0
    1.6567    0.5362   -1.2661 H   0  0  0  0  0  0  0  0  0  0  0  0
    4.0941    0.0396   -1.1809 H   0  0  0  0  0  0  0  0  0  0  0  0
    3.8544   -0.8642    0.3148 H   0  0  0  0  0  0  0  0  0  0  0  0
    3.1246   -1.4328   -1.1901 H   0  0  0  0  0  0  0  0  0  0  0  0
    1.3112   -0.3429    1.5858 H   0  0  0  0  0  0  0  0  0  0  0  0
    1.3343   -1.6070    0.3695 H   0  0  0  0  0  0  0  0  0  0  0  0
   -0.1615    1.7130   -0.4587 H   0  0  0  0  0  0  0  0  0  0  0  0
   -2.5466    1.9919   -0.8737 H   0  0  0  0  0  0  0  0  0  0  0  0
   -4.1203    0.1433   -0.4274 H   0  0  0  0  0  0  0  0  0  0  0  0
   -3.2605   -2.0010    0.4504 H   0  0  0  0  0  0  0  0  0  0  0  0
   -0.8606   -2.2856    0.8658 H   0  0  0  0  0  0  0  0  0  0  0  0
  1  2  1  0  0  0  0
  2  3  1  0  0  0  0
  2  4  1  0  0  0  0
  4  5  1  0  0  0  0
  5  6  4  0  0  0  0
  6  7  4  0  0  0  0
  7  8  4  0  0  0  0
  8  9  4  0  0  0  0
  5 10  4  0  0  0  0
  9 10  4  0  0  0  0
  1 11  1  0  0  0  0
  1 12  1  0  0  0  0
  1 13  1  0  0  0  0
  2 14  1  0  0  0  0
  3 15  1  0  0  0  0
  3 16  1  0  0  0  0
  3 17  1  0  0  0  0
  4 18  1  0  0  0  0
  4 19  1  0  0  0  0
  6 20  1  0  0  0  0
  7 21  1  0  0  0  0
  8 22  1  0  0  0  0
  9 23  1  0  0  0  0
 10 24  1  0  0  0  0
M  END
