 xtb: 6.7.1 (edcfbbe)
          04112511523D

 13 12  0     0  0            999 V2000
   -2.2527   -0.2197    0.1098 C   0  0  0  0  0  0  0  0  0  0  0  0
   -0.9113   -0.2697   -0.3234 O   0  0  0  0  0  0  0  0  0  0  0  0
   -0.0950    0.7226    0.2714 C   0  0  0  0  0  0  0  0  0  0  0  0
    1.3263    0.5428   -0.2592 C   0  0  0  0  0  0  0  0  0  0  0  0
    1.9155   -0.6548    0.1876 O   0  0  0  0  0  0  0  0  0  0  0  0
   -2.7085    0.7435   -0.1431 H   0  0  0  0  0  0  0  0  0  0  0  0
   -2.3197   -0.3741    1.1921 H   0  0  0  0  0  0  0  0  0  0  0  0
   -2.7705   -1.0214   -0.4103 H   0  0  0  0  0  0  0  0  0  0  0  0
   -0.4656    1.7242    0.0140 H   0  0  0  0  0  0  0  0  0  0  0  0
   -0.1037    0.6098    1.3648 H   0  0  0  0  0  0  0  0  0  0  0  0
    1.9610    1.3503    0.1090 H   0  0  0  0  0  0  0  0  0  0  0  0
    1.3011    0.5710   -1.3558 H   0  0  0  0  0  0  0  0  0  0  0  0
    1.3380   -1.3884   -0.0695 H   0  0  0  0  0  0  0  0  0  0  0  0
  1  2  1  0  0  0  0
  2  3  1  0  0  0  0
  3  4  1  0  0  0  0
  4  5  1  0  0  0  0
  1  6  1  0  0  0  0
  1  7  1  0  0  0  0
  1  8  1  0  0  0  0
  3  9  1  0  0  0  0
  3 10  1  0  0  0  0
  4 11  1  0  0  0  0
  4 12  1  0  0  0  0
  5 13  1  0  0  0  0
M  END
