 xtb: 6.7.1 (edcfbbe)
          04112511103D

 18 17  0     0  0            999 V2000
    2.3721   -0.2661   -0.6791 C   0  0  0  0  0  0  0  0  0  0  0  0
    1.6135    0.2725    0.5294 C   0  0  0  0  0  0  0  0  0  0  0  0
    0.2635   -0.4161    0.7457 C   0  0  0  0  0  0  0  0  0  0  0  0
   -0.8150   -0.0411   -0.2804 C   0  0  0  0  0  0  0  0  0  0  0  0
   -0.4010   -0.1111   -1.2985 H   0  0  0  0  0  0  0  0  0  0  0  0
   -2.0135   -0.9800   -0.1754 C   0  0  0  0  0  0  0  0  0  0  0  0
   -1.3051    1.2763   -0.0737 O   0  0  0  0  0  0  0  0  0  0  0  0
    3.3395    0.2229   -0.7640 H   0  0  0  0  0  0  0  0  0  0  0  0
    1.8224   -0.0919   -1.6006 H   0  0  0  0  0  0  0  0  0  0  0  0
    2.5356   -1.3363   -0.5763 H   0  0  0  0  0  0  0  0  0  0  0  0
    2.2223    0.1172    1.4225 H   0  0  0  0  0  0  0  0  0  0  0  0
    1.4725    1.3502    0.4197 H   0  0  0  0  0  0  0  0  0  0  0  0
    0.4085   -1.4968    0.7128 H   0  0  0  0  0  0  0  0  0  0  0  0
   -0.1214   -0.1573    1.7349 H   0  0  0  0  0  0  0  0  0  0  0  0
   -1.7194   -1.9953   -0.4217 H   0  0  0  0  0  0  0  0  0  0  0  0
   -2.4130   -0.9529    0.8350 H   0  0  0  0  0  0  0  0  0  0  0  0
   -2.7910   -0.6545   -0.8613 H   0  0  0  0  0  0  0  0  0  0  0  0
   -0.5661    1.8978   -0.1015 H   0  0  0  0  0  0  0  0  0  0  0  0
  1  2  1  0  0  0  0
  2  3  1  0  0  0  0
  3  4  1  0  0  0  0
  4  5  1  0  0  0  0
  4  6  1  0  0  0  0
  4  7  1  0  0  0  0
  1  8  1  0  0  0  0
  1  9  1  0  0  0  0
  1 10  1  0  0  0  0
  2 11  1  0  0  0  0
  2 12  1  0  0  0  0
  3 13  1  0  0  0  0
  3 14  1  0  0  0  0
  6 15  1  0  0  0  0
  6 16  1  0  0  0  0
  6 17  1  0  0  0  0
  7 18  1  0  0  0  0
M  END
