 xtb: 6.7.1 (edcfbbe)
          04112511103D

 18 17  0     0  0            999 V2000
    2.2525    0.5341    0.2958 C   0  0  0  0  0  0  0  0  0  0  0  0
    1.3392   -0.6865    0.2148 C   0  0  0  0  0  0  0  0  0  0  0  0
    0.2784   -0.5486   -0.8848 C   0  0  0  0  0  0  0  0  0  0  0  0
   -1.0508    0.0853   -0.4284 C   0  0  0  0  0  0  0  0  0  0  0  0
   -1.6264    0.3449   -1.3257 H   0  0  0  0  0  0  0  0  0  0  0  0
   -1.8789   -0.8783    0.4224 C   0  0  0  0  0  0  0  0  0  0  0  0
   -0.8695    1.3248    0.2343 O   0  0  0  0  0  0  0  0  0  0  0  0
    2.8553    0.6112   -0.6067 H   0  0  0  0  0  0  0  0  0  0  0  0
    2.9234    0.4540    1.1483 H   0  0  0  0  0  0  0  0  0  0  0  0
    1.6735    1.4489    0.3903 H   0  0  0  0  0  0  0  0  0  0  0  0
    1.9516   -1.5662    0.0074 H   0  0  0  0  0  0  0  0  0  0  0  0
    0.8604   -0.8527    1.1816 H   0  0  0  0  0  0  0  0  0  0  0  0
    0.6922    0.0573   -1.6928 H   0  0  0  0  0  0  0  0  0  0  0  0
    0.0371   -1.5295   -1.2961 H   0  0  0  0  0  0  0  0  0  0  0  0
   -1.3237   -1.1954    1.3023 H   0  0  0  0  0  0  0  0  0  0  0  0
   -2.7936   -0.3873    0.7460 H   0  0  0  0  0  0  0  0  0  0  0  0
   -2.1406   -1.7571   -0.1590 H   0  0  0  0  0  0  0  0  0  0  0  0
   -0.5121    1.1460    1.1154 H   0  0  0  0  0  0  0  0  0  0  0  0
  1  2  1  0  0  0  0
  2  3  1  0  0  0  0
  3  4  1  0  0  0  0
  4  5  1  0  0  0  0
  4  6  1  0  0  0  0
  4  7  1  0  0  0  0
  1  8  1  0  0  0  0
  1  9  1  0  0  0  0
  1 10  1  0  0  0  0
  2 11  1  0  0  0  0
  2 12  1  0  0  0  0
  3 13  1  0  0  0  0
  3 14  1  0  0  0  0
  6 15  1  0  0  0  0
  6 16  1  0  0  0  0
  6 17  1  0  0  0  0
  7 18  1  0  0  0  0
M  END
