 xtb: 6.7.1 (edcfbbe)
          04112511553D

 24 24  0     0  0            999 V2000
   -2.1579   -0.0520   -1.2478 C   0  0  0  0  0  0  0  0  0  0  0  0
   -2.1607    0.3447    0.2238 C   0  0  0  0  0  0  0  0  0  0  0  0
   -1.2165   -0.4517    1.1314 C   0  0  0  0  0  0  0  0  0  0  0  0
    0.3040   -0.3278    0.9306 C   0  0  0  0  0  0  0  0  0  0  0  0
    0.8654   -1.2013   -0.2068 C   0  0  0  0  0  0  0  0  0  0  0  0
    2.0874   -0.4379   -0.7092 C   0  0  0  0  0  0  0  0  0  0  0  0
    1.6255    1.0148   -0.6514 C   0  0  0  0  0  0  0  0  0  0  0  0
    0.8395    1.0966    0.6608 C   0  0  0  0  0  0  0  0  0  0  0  0
   -2.2972   -1.1256   -1.3566 H   0  0  0  0  0  0  0  0  0  0  0  0
   -2.9729    0.4504   -1.7655 H   0  0  0  0  0  0  0  0  0  0  0  0
   -1.2289    0.2351   -1.7313 H   0  0  0  0  0  0  0  0  0  0  0  0
   -1.9473    1.4117    0.3056 H   0  0  0  0  0  0  0  0  0  0  0  0
   -3.1704    0.1944    0.6161 H   0  0  0  0  0  0  0  0  0  0  0  0
   -1.4379   -0.1429    2.1571 H   0  0  0  0  0  0  0  0  0  0  0  0
   -1.4721   -1.5117    1.0528 H   0  0  0  0  0  0  0  0  0  0  0  0
    0.7530   -0.6845    1.8642 H   0  0  0  0  0  0  0  0  0  0  0  0
    1.1171   -2.2015    0.1454 H   0  0  0  0  0  0  0  0  0  0  0  0
    0.1396   -1.3021   -1.0100 H   0  0  0  0  0  0  0  0  0  0  0  0
    2.9285   -0.5867   -0.0296 H   0  0  0  0  0  0  0  0  0  0  0  0
    2.3923   -0.7445   -1.7089 H   0  0  0  0  0  0  0  0  0  0  0  0
    2.4542    1.7213   -0.6807 H   0  0  0  0  0  0  0  0  0  0  0  0
    0.9710    1.2252   -1.4987 H   0  0  0  0  0  0  0  0  0  0  0  0
    1.5038    1.3995    1.4710 H   0  0  0  0  0  0  0  0  0  0  0  0
    0.0432    1.8343    0.6016 H   0  0  0  0  0  0  0  0  0  0  0  0
  1  2  1  0  0  0  0
  2  3  1  0  0  0  0
  3  4  1  0  0  0  0
  4  5  1  0  0  0  0
  5  6  1  0  0  0  0
  6  7  1  0  0  0  0
  4  8  1  0  0  0  0
  7  8  1  0  0  0  0
  1  9  1  0  0  0  0
  1 10  1  0  0  0  0
  1 11  1  0  0  0  0
  2 12  1  0  0  0  0
  2 13  1  0  0  0  0
  3 14  1  0  0  0  0
  3 15  1  0  0  0  0
  4 16  1  0  0  0  0
  5 17  1  0  0  0  0
  5 18  1  0  0  0  0
  6 19  1  0  0  0  0
  6 20  1  0  0  0  0
  7 21  1  0  0  0  0
  7 22  1  0  0  0  0
  8 23  1  0  0  0  0
  8 24  1  0  0  0  0
M  END
