 xtb: 6.7.1 (edcfbbe)
          04112511493D

 17 16  0     0  0            999 V2000
   -2.2727    0.9335   -0.6852 C   0  0  0  0  0  0  0  0  0  0  0  0
   -2.0959   -0.3208    0.1624 C   0  0  0  0  0  0  0  0  0  0  0  0
   -0.8105   -0.2646    0.9901 C   0  0  0  0  0  0  0  0  0  0  0  0
    0.4159   -0.3394    0.1185 C   0  0  0  0  0  0  0  0  0  0  0  0
    0.5507   -1.0610   -0.8469 O   0  0  0  0  0  0  0  0  0  0  0  0
    1.3686    0.4853    0.5446 O   0  0  0  0  0  0  0  0  0  0  0  0
    2.6056    0.4948   -0.1726 C   0  0  0  0  0  0  0  0  0  0  0  0
   -3.2005    0.8825   -1.2485 H   0  0  0  0  0  0  0  0  0  0  0  0
   -2.2971    1.8206   -0.0567 H   0  0  0  0  0  0  0  0  0  0  0  0
   -1.4499    1.0319   -1.3907 H   0  0  0  0  0  0  0  0  0  0  0  0
   -2.0546   -1.1972   -0.4869 H   0  0  0  0  0  0  0  0  0  0  0  0
   -2.9457   -0.4305    0.8364 H   0  0  0  0  0  0  0  0  0  0  0  0
   -0.7717   -1.1229    1.6646 H   0  0  0  0  0  0  0  0  0  0  0  0
   -0.7580    0.6476    1.5837 H   0  0  0  0  0  0  0  0  0  0  0  0
    3.0556   -0.4984   -0.1537 H   0  0  0  0  0  0  0  0  0  0  0  0
    3.2339    1.2185    0.3367 H   0  0  0  0  0  0  0  0  0  0  0  0
    2.4329    0.7859   -1.2094 H   0  0  0  0  0  0  0  0  0  0  0  0
  1  2  1  0  0  0  0
  2  3  1  0  0  0  0
  3  4  1  0  0  0  0
  4  5  2  0  0  0  0
  4  6  1  0  0  0  0
  6  7  1  0  0  0  0
  1  8  1  0  0  0  0
  1  9  1  0  0  0  0
  1 10  1  0  0  0  0
  2 11  1  0  0  0  0
  2 12  1  0  0  0  0
  3 13  1  0  0  0  0
  3 14  1  0  0  0  0
  7 15  1  0  0  0  0
  7 16  1  0  0  0  0
  7 17  1  0  0  0  0
M  END
