 xtb: 6.7.1 (edcfbbe)
          04112511243D

 20 19  0     0  0            999 V2000
    0.0631   -2.5612    0.0454 C   0  0  0  0  0  0  0  0  0  0  0  0
   -0.0649   -1.0735   -0.2172 C   0  0  0  0  0  0  0  0  0  0  0  0
    0.8472   -0.3417    0.5928 O   0  0  0  0  0  0  0  0  0  0  0  0
    1.8182    0.3735    0.0004 C   0  0  0  0  0  0  0  0  0  0  0  0
    2.0137    0.3594   -1.1921 O   0  0  0  0  0  0  0  0  0  0  0  0
    2.6248    1.1215    1.0106 C   0  0  0  0  0  0  0  0  0  0  0  0
   -1.3766   -0.6793    0.1444 O   0  0  0  0  0  0  0  0  0  0  0  0
   -1.7581    0.5850   -0.1072 C   0  0  0  0  0  0  0  0  0  0  0  0
   -1.0319    1.3946   -0.6381 O   0  0  0  0  0  0  0  0  0  0  0  0
   -3.1533    0.8306    0.3624 C   0  0  0  0  0  0  0  0  0  0  0  0
   -0.6904   -3.0883   -0.5297 H   0  0  0  0  0  0  0  0  0  0  0  0
   -0.0885   -2.7471    1.1043 H   0  0  0  0  0  0  0  0  0  0  0  0
    1.0525   -2.8947   -0.2503 H   0  0  0  0  0  0  0  0  0  0  0  0
    0.1246   -0.8075   -1.2690 H   0  0  0  0  0  0  0  0  0  0  0  0
    3.3041    0.4217    1.4930 H   0  0  0  0  0  0  0  0  0  0  0  0
    3.1984    1.8967    0.5137 H   0  0  0  0  0  0  0  0  0  0  0  0
    1.9698    1.5414    1.7672 H   0  0  0  0  0  0  0  0  0  0  0  0
   -3.1249    1.0245    1.4328 H   0  0  0  0  0  0  0  0  0  0  0  0
   -3.5620    1.6979   -0.1455 H   0  0  0  0  0  0  0  0  0  0  0  0
   -3.7586   -0.0534    0.1912 H   0  0  0  0  0  0  0  0  0  0  0  0
  1  2  1  0  0  0  0
  2  3  1  0  0  0  0
  3  4  1  0  0  0  0
  4  5  2  0  0  0  0
  4  6  1  0  0  0  0
  2  7  1  0  0  0  0
  7  8  1  0  0  0  0
  8  9  2  0  0  0  0
  8 10  1  0  0  0  0
  1 11  1  0  0  0  0
  1 12  1  0  0  0  0
  1 13  1  0  0  0  0
  2 14  1  0  0  0  0
  6 15  1  0  0  0  0
  6 16  1  0  0  0  0
  6 17  1  0  0  0  0
 10 18  1  0  0  0  0
 10 19  1  0  0  0  0
 10 20  1  0  0  0  0
M  END
