 xtb: 6.7.1 (edcfbbe)
          04112511013D

 11 10  0     0  0            999 V2000
    2.2914   -0.0173    0.1187 C   0  0  0  0  0  0  0  0  0  0  0  0
    0.8776    0.3858   -0.2504 C   0  0  0  0  0  0  0  0  0  0  0  0
   -0.0305   -0.5850    0.3164 O   0  0  0  0  0  0  0  0  0  0  0  0
   -1.3103   -0.3687    0.1875 C   0  0  0  0  0  0  0  0  0  0  0  0
   -1.8292    0.5696   -0.3647 O   0  0  0  0  0  0  0  0  0  0  0  0
    2.4039   -0.0374    1.1986 H   0  0  0  0  0  0  0  0  0  0  0  0
    2.5113   -1.0052   -0.2745 H   0  0  0  0  0  0  0  0  0  0  0  0
    2.9900    0.6989   -0.3008 H   0  0  0  0  0  0  0  0  0  0  0  0
    0.7283    0.3995   -1.3342 H   0  0  0  0  0  0  0  0  0  0  0  0
    0.6159    1.3717    0.1457 H   0  0  0  0  0  0  0  0  0  0  0  0
   -1.8765   -1.1820    0.6657 H   0  0  0  0  0  0  0  0  0  0  0  0
  1  2  1  0  0  0  0
  2  3  1  0  0  0  0
  3  4  4  0  0  0  0
  4  5  2  0  0  0  0
  1  6  1  0  0  0  0
  1  7  1  0  0  0  0
  1  8  1  0  0  0  0
  2  9  1  0  0  0  0
  2 10  1  0  0  0  0
  4 11  1  0  0  0  0
M  END
