 xtb: 6.7.1 (edcfbbe)
          04112512243D

 23 22  0     0  0            999 V2000
    2.0576    1.2680    0.6745 C   0  0  0  0  0  0  0  0  0  0  0  0
    1.6366   -0.1753    0.4208 C   0  0  0  0  0  0  0  0  0  0  0  0
    0.3823   -0.2986   -0.4574 C   0  0  0  0  0  0  0  0  0  0  0  0
    0.5386    0.3320   -1.3399 H   0  0  0  0  0  0  0  0  0  0  0  0
    0.2653   -1.7390   -0.9581 C   0  0  0  0  0  0  0  0  0  0  0  0
   -0.8747    0.2328    0.2858 C   0  0  0  0  0  0  0  0  0  0  0  0
   -1.4283    1.4695   -0.4243 C   0  0  0  0  0  0  0  0  0  0  0  0
   -2.0017   -0.7850    0.4642 C   0  0  0  0  0  0  0  0  0  0  0  0
    2.2556    1.7748   -0.2677 H   0  0  0  0  0  0  0  0  0  0  0  0
    1.2838    1.8189    1.2029 H   0  0  0  0  0  0  0  0  0  0  0  0
    2.9639    1.2957    1.2751 H   0  0  0  0  0  0  0  0  0  0  0  0
    1.4590   -0.6795    1.3738 H   0  0  0  0  0  0  0  0  0  0  0  0
    2.4619   -0.6925   -0.0742 H   0  0  0  0  0  0  0  0  0  0  0  0
    0.1902   -2.4389   -0.1301 H   0  0  0  0  0  0  0  0  0  0  0  0
   -0.5992   -1.8640   -1.6031 H   0  0  0  0  0  0  0  0  0  0  0  0
    1.1523   -1.9947   -1.5344 H   0  0  0  0  0  0  0  0  0  0  0  0
   -0.5657    0.5358    1.2920 H   0  0  0  0  0  0  0  0  0  0  0  0
   -1.7684    1.2097   -1.4249 H   0  0  0  0  0  0  0  0  0  0  0  0
   -0.6666    2.2410   -0.5086 H   0  0  0  0  0  0  0  0  0  0  0  0
   -2.2717    1.8808    0.1266 H   0  0  0  0  0  0  0  0  0  0  0  0
   -2.7992   -0.3361    1.0531 H   0  0  0  0  0  0  0  0  0  0  0  0
   -1.6566   -1.6715    0.9881 H   0  0  0  0  0  0  0  0  0  0  0  0
   -2.4202   -1.0830   -0.4934 H   0  0  0  0  0  0  0  0  0  0  0  0
  1  2  1  0  0  0  0
  2  3  1  0  0  0  0
  3  4  1  0  0  0  0
  3  5  1  0  0  0  0
  3  6  1  0  0  0  0
  6  7  1  0  0  0  0
  6  8  1  0  0  0  0
  1  9  1  0  0  0  0
  1 10  1  0  0  0  0
  1 11  1  0  0  0  0
  2 12  1  0  0  0  0
  2 13  1  0  0  0  0
  5 14  1  0  0  0  0
  5 15  1  0  0  0  0
  5 16  1  0  0  0  0
  6 17  1  0  0  0  0
  7 18  1  0  0  0  0
  7 19  1  0  0  0  0
  7 20  1  0  0  0  0
  8 21  1  0  0  0  0
  8 22  1  0  0  0  0
  8 23  1  0  0  0  0
M  END
