 xtb: 6.7.1 (edcfbbe)
          04112511493D

 21 20  0     0  0            999 V2000
    1.9907    1.1038   -0.3797 C   0  0  0  0  0  0  0  0  0  0  0  0
    1.4061   -0.3059   -0.2865 C   0  0  0  0  0  0  0  0  0  0  0  0
    2.0267   -0.9838   -0.8859 H   0  0  0  0  0  0  0  0  0  0  0  0
   -0.0317   -0.3678   -0.8385 C   0  0  0  0  0  0  0  0  0  0  0  0
   -1.1024    0.2719    0.0607 C   0  0  0  0  0  0  0  0  0  0  0  0
   -2.2103    0.8946   -0.7881 C   0  0  0  0  0  0  0  0  0  0  0  0
   -1.6996   -0.7627    1.0152 C   0  0  0  0  0  0  0  0  0  0  0  0
    1.5135   -0.8186    1.0311 O   0  0  0  0  0  0  0  0  0  0  0  0
    2.9920    1.1145    0.0445 H   0  0  0  0  0  0  0  0  0  0  0  0
    2.0481    1.4142   -1.4185 H   0  0  0  0  0  0  0  0  0  0  0  0
    1.3741    1.8164    0.1633 H   0  0  0  0  0  0  0  0  0  0  0  0
   -0.0190    0.1287   -1.8097 H   0  0  0  0  0  0  0  0  0  0  0  0
   -0.2957   -1.4137   -1.0050 H   0  0  0  0  0  0  0  0  0  0  0  0
   -0.6478    1.0730    0.6535 H   0  0  0  0  0  0  0  0  0  0  0  0
   -2.9861    1.3129   -0.1508 H   0  0  0  0  0  0  0  0  0  0  0  0
   -2.6625    0.1413   -1.4296 H   0  0  0  0  0  0  0  0  0  0  0  0
   -1.8151    1.6901   -1.4155 H   0  0  0  0  0  0  0  0  0  0  0  0
   -2.3519   -0.2835    1.7422 H   0  0  0  0  0  0  0  0  0  0  0  0
   -2.2872   -1.4882    0.4558 H   0  0  0  0  0  0  0  0  0  0  0  0
   -0.9181   -1.2995    1.5463 H   0  0  0  0  0  0  0  0  0  0  0  0
    1.1455   -0.1657    1.6425 H   0  0  0  0  0  0  0  0  0  0  0  0
  1  2  1  0  0  0  0
  2  3  1  0  0  0  0
  2  4  1  0  0  0  0
  4  5  1  0  0  0  0
  5  6  1  0  0  0  0
  5  7  1  0  0  0  0
  2  8  1  0  0  0  0
  1  9  1  0  0  0  0
  1 10  1  0  0  0  0
  1 11  1  0  0  0  0
  4 12  1  0  0  0  0
  4 13  1  0  0  0  0
  5 14  1  0  0  0  0
  6 15  1  0  0  0  0
  6 16  1  0  0  0  0
  6 17  1  0  0  0  0
  7 18  1  0  0  0  0
  7 19  1  0  0  0  0
  7 20  1  0  0  0  0
  8 21  1  0  0  0  0
M  END
