 xtb: 6.7.1 (edcfbbe)
          04112512223D

 23 22  0     0  0            999 V2000
   -1.6842    0.9555   -1.0057 C   0  0  0  0  0  0  0  0  0  0  0  0
   -1.2788    0.1579    0.2321 C   0  0  0  0  0  0  0  0  0  0  0  0
   -2.4128   -0.7861    0.6322 C   0  0  0  0  0  0  0  0  0  0  0  0
    0.0004   -0.6534   -0.0062 C   0  0  0  0  0  0  0  0  0  0  0  0
    1.2788    0.1636   -0.2298 C   0  0  0  0  0  0  0  0  0  0  0  0
    1.6818    0.9419    1.0210 C   0  0  0  0  0  0  0  0  0  0  0  0
    2.4148   -0.7722   -0.6436 C   0  0  0  0  0  0  0  0  0  0  0  0
   -1.8184    0.2901   -1.8562 H   0  0  0  0  0  0  0  0  0  0  0  0
   -2.6219    1.4768   -0.8273 H   0  0  0  0  0  0  0  0  0  0  0  0
   -0.9309    1.6955   -1.2617 H   0  0  0  0  0  0  0  0  0  0  0  0
   -1.1122    0.8558    1.0586 H   0  0  0  0  0  0  0  0  0  0  0  0
   -3.3272   -0.2275    0.8181 H   0  0  0  0  0  0  0  0  0  0  0  0
   -2.6051   -1.5044   -0.1620 H   0  0  0  0  0  0  0  0  0  0  0  0
   -2.1567   -1.3342    1.5361 H   0  0  0  0  0  0  0  0  0  0  0  0
   -0.1604   -1.2932   -0.8781 H   0  0  0  0  0  0  0  0  0  0  0  0
    0.1622   -1.3086    0.8539 H   0  0  0  0  0  0  0  0  0  0  0  0
    1.1119    0.8743   -1.0452 H   0  0  0  0  0  0  0  0  0  0  0  0
    0.9275    1.6772    1.2875 H   0  0  0  0  0  0  0  0  0  0  0  0
    1.8153    0.2633    1.8611 H   0  0  0  0  0  0  0  0  0  0  0  0
    2.6194    1.4668    0.8519 H   0  0  0  0  0  0  0  0  0  0  0  0
    2.1585   -1.3100   -1.5534 H   0  0  0  0  0  0  0  0  0  0  0  0
    3.3272   -0.2087   -0.8245 H   0  0  0  0  0  0  0  0  0  0  0  0
    2.6107   -1.4995    0.1416 H   0  0  0  0  0  0  0  0  0  0  0  0
  1  2  1  0  0  0  0
  2  3  1  0  0  0  0
  2  4  1  0  0  0  0
  4  5  1  0  0  0  0
  5  6  1  0  0  0  0
  5  7  1  0  0  0  0
  1  8  1  0  0  0  0
  1  9  1  0  0  0  0
  1 10  1  0  0  0  0
  2 11  1  0  0  0  0
  3 12  1  0  0  0  0
  3 13  1  0  0  0  0
  3 14  1  0  0  0  0
  4 15  1  0  0  0  0
  4 16  1  0  0  0  0
  5 17  1  0  0  0  0
  6 18  1  0  0  0  0
  6 19  1  0  0  0  0
  6 20  1  0  0  0  0
  7 21  1  0  0  0  0
  7 22  1  0  0  0  0
  7 23  1  0  0  0  0
M  END
