 xtb: 6.7.1 (edcfbbe)
          04112512193D

 17 16  0     0  0            999 V2000
   -2.6557    0.4117    0.5793 C   0  0  0  0  0  0  0  0  0  0  0  0
   -1.7067    0.4565   -0.6223 C   0  0  0  0  0  0  0  0  0  0  0  0
   -0.4179   -0.2326   -0.2560 C   0  0  0  0  0  0  0  0  0  0  0  0
   -0.1995   -1.4172   -0.4047 O   0  0  0  0  0  0  0  0  0  0  0  0
    0.4426    0.6113    0.2982 O   0  0  0  0  0  0  0  0  0  0  0  0
    1.7111    0.1045    0.7451 C   0  0  0  0  0  0  0  0  0  0  0  0
    2.7288    0.0997   -0.3852 C   0  0  0  0  0  0  0  0  0  0  0  0
   -2.2185    0.9366    1.4248 H   0  0  0  0  0  0  0  0  0  0  0  0
   -3.5978    0.8849    0.3201 H   0  0  0  0  0  0  0  0  0  0  0  0
   -2.8481   -0.6190    0.8681 H   0  0  0  0  0  0  0  0  0  0  0  0
   -1.4915    1.4902   -0.8880 H   0  0  0  0  0  0  0  0  0  0  0  0
   -2.1517   -0.0675   -1.4672 H   0  0  0  0  0  0  0  0  0  0  0  0
    2.0106    0.7811    1.5460 H   0  0  0  0  0  0  0  0  0  0  0  0
    1.5648   -0.9073    1.1354 H   0  0  0  0  0  0  0  0  0  0  0  0
    2.4137   -0.5880   -1.1668 H   0  0  0  0  0  0  0  0  0  0  0  0
    2.8239    1.0964   -0.8074 H   0  0  0  0  0  0  0  0  0  0  0  0
    3.6916   -0.2209   -0.0010 H   0  0  0  0  0  0  0  0  0  0  0  0
  1  2  1  0  0  0  0
  2  3  1  0  0  0  0
  3  4  2  0  0  0  0
  3  5  1  0  0  0  0
  5  6  1  0  0  0  0
  6  7  1  0  0  0  0
  1  8  1  0  0  0  0
  1  9  1  0  0  0  0
  1 10  1  0  0  0  0
  2 11  1  0  0  0  0
  2 12  1  0  0  0  0
  6 13  1  0  0  0  0
  6 14  1  0  0  0  0
  7 15  1  0  0  0  0
  7 16  1  0  0  0  0
  7 17  1  0  0  0  0
M  END
