 xtb: 6.7.1 (edcfbbe)
          04112511493D

 17 16  0     0  0            999 V2000
   -3.0708    0.7923    0.0564 C   0  0  0  0  0  0  0  0  0  0  0  0
   -1.5474    0.8319    0.0832 C   0  0  0  0  0  0  0  0  0  0  0  0
   -0.9612   -0.5679   -0.0769 C   0  0  0  0  0  0  0  0  0  0  0  0
    0.5431   -0.6237   -0.0658 C   0  0  0  0  0  0  0  0  0  0  0  0
    1.1830   -1.6515   -0.1776 O   0  0  0  0  0  0  0  0  0  0  0  0
    1.1119    0.5655    0.0771 O   0  0  0  0  0  0  0  0  0  0  0  0
    2.5403    0.6159    0.0976 C   0  0  0  0  0  0  0  0  0  0  0  0
   -3.4514    0.1721    0.8642 H   0  0  0  0  0  0  0  0  0  0  0  0
   -3.4761    1.7938    0.1717 H   0  0  0  0  0  0  0  0  0  0  0  0
   -3.4261    0.3840   -0.8865 H   0  0  0  0  0  0  0  0  0  0  0  0
   -1.2064    1.2610    1.0262 H   0  0  0  0  0  0  0  0  0  0  0  0
   -1.1814    1.4712   -0.7213 H   0  0  0  0  0  0  0  0  0  0  0  0
   -1.2902   -1.0175   -1.0171 H   0  0  0  0  0  0  0  0  0  0  0  0
   -1.3113   -1.2257    0.7225 H   0  0  0  0  0  0  0  0  0  0  0  0
    2.9212    0.0523    0.9499 H   0  0  0  0  0  0  0  0  0  0  0  0
    2.7939    1.6679    0.1800 H   0  0  0  0  0  0  0  0  0  0  0  0
    2.9427    0.1844   -0.8196 H   0  0  0  0  0  0  0  0  0  0  0  0
  1  2  1  0  0  0  0
  2  3  1  0  0  0  0
  3  4  1  0  0  0  0
  4  5  2  0  0  0  0
  4  6  1  0  0  0  0
  6  7  1  0  0  0  0
  1  8  1  0  0  0  0
  1  9  1  0  0  0  0
  1 10  1  0  0  0  0
  2 11  1  0  0  0  0
  2 12  1  0  0  0  0
  3 13  1  0  0  0  0
  3 14  1  0  0  0  0
  7 15  1  0  0  0  0
  7 16  1  0  0  0  0
  7 17  1  0  0  0  0
M  END
