 xtb: 6.7.1 (edcfbbe)
          04112512193D

 17 16  0     0  0            999 V2000
   -2.5935    0.6901   -0.5988 C   0  0  0  0  0  0  0  0  0  0  0  0
   -1.7393    0.3556    0.6255 C   0  0  0  0  0  0  0  0  0  0  0  0
   -0.5081   -0.4043    0.2014 C   0  0  0  0  0  0  0  0  0  0  0  0
   -0.5180   -1.5041   -0.3135 O   0  0  0  0  0  0  0  0  0  0  0  0
    0.5975    0.2842    0.4415 O   0  0  0  0  0  0  0  0  0  0  0  0
    1.8671   -0.2770    0.0640 C   0  0  0  0  0  0  0  0  0  0  0  0
    2.7944    0.8527   -0.3453 C   0  0  0  0  0  0  0  0  0  0  0  0
   -3.5175    1.1666   -0.2859 H   0  0  0  0  0  0  0  0  0  0  0  0
   -2.0588    1.3639   -1.2634 H   0  0  0  0  0  0  0  0  0  0  0  0
   -2.8311   -0.2200   -1.1444 H   0  0  0  0  0  0  0  0  0  0  0  0
   -2.3099   -0.2823    1.3016 H   0  0  0  0  0  0  0  0  0  0  0  0
   -1.4306    1.2613    1.1448 H   0  0  0  0  0  0  0  0  0  0  0  0
    2.2593   -0.8172    0.9309 H   0  0  0  0  0  0  0  0  0  0  0  0
    1.7030   -0.9893   -0.7508 H   0  0  0  0  0  0  0  0  0  0  0  0
    2.3940    1.3747   -1.2097 H   0  0  0  0  0  0  0  0  0  0  0  0
    2.8996    1.5589    0.4730 H   0  0  0  0  0  0  0  0  0  0  0  0
    3.7682    0.4445   -0.5948 H   0  0  0  0  0  0  0  0  0  0  0  0
  1  2  1  0  0  0  0
  2  3  1  0  0  0  0
  3  4  2  0  0  0  0
  3  5  1  0  0  0  0
  5  6  1  0  0  0  0
  6  7  1  0  0  0  0
  1  8  1  0  0  0  0
  1  9  1  0  0  0  0
  1 10  1  0  0  0  0
  2 11  1  0  0  0  0
  2 12  1  0  0  0  0
  6 13  1  0  0  0  0
  6 14  1  0  0  0  0
  7 15  1  0  0  0  0
  7 16  1  0  0  0  0
  7 17  1  0  0  0  0
M  END
