 xtb: 6.7.1 (edcfbbe)
          04112511103D

 18 17  0     0  0            999 V2000
    2.1923    0.7353    0.1974 C   0  0  0  0  0  0  0  0  0  0  0  0
    1.6331   -0.5260   -0.4508 C   0  0  0  0  0  0  0  0  0  0  0  0
    0.2685   -0.9377    0.1057 C   0  0  0  0  0  0  0  0  0  0  0  0
   -0.8835   -0.0023   -0.2942 C   0  0  0  0  0  0  0  0  0  0  0  0
   -0.7777    0.2706   -1.3507 H   0  0  0  0  0  0  0  0  0  0  0  0
   -2.2339   -0.6909   -0.0822 C   0  0  0  0  0  0  0  0  0  0  0  0
   -0.8439    1.2388    0.3890 O   0  0  0  0  0  0  0  0  0  0  0  0
    1.5049    1.5664    0.0653 H   0  0  0  0  0  0  0  0  0  0  0  0
    3.1471    0.9991   -0.2513 H   0  0  0  0  0  0  0  0  0  0  0  0
    2.3459    0.5789    1.2629 H   0  0  0  0  0  0  0  0  0  0  0  0
    1.5438   -0.3702   -1.5284 H   0  0  0  0  0  0  0  0  0  0  0  0
    2.3347   -1.3488   -0.2928 H   0  0  0  0  0  0  0  0  0  0  0  0
    0.0284   -1.9348   -0.2671 H   0  0  0  0  0  0  0  0  0  0  0  0
    0.3221   -0.9905    1.1958 H   0  0  0  0  0  0  0  0  0  0  0  0
   -2.3243   -1.0368    0.9455 H   0  0  0  0  0  0  0  0  0  0  0  0
   -3.0398    0.0090   -0.2898 H   0  0  0  0  0  0  0  0  0  0  0  0
   -2.3306   -1.5431   -0.7479 H   0  0  0  0  0  0  0  0  0  0  0  0
   -0.9958    1.0757    1.3305 H   0  0  0  0  0  0  0  0  0  0  0  0
  1  2  1  0  0  0  0
  2  3  1  0  0  0  0
  3  4  1  0  0  0  0
  4  5  1  0  0  0  0
  4  6  1  0  0  0  0
  4  7  1  0  0  0  0
  1  8  1  0  0  0  0
  1  9  1  0  0  0  0
  1 10  1  0  0  0  0
  2 11  1  0  0  0  0
  2 12  1  0  0  0  0
  3 13  1  0  0  0  0
  3 14  1  0  0  0  0
  6 15  1  0  0  0  0
  6 16  1  0  0  0  0
  6 17  1  0  0  0  0
  7 18  1  0  0  0  0
M  END
