 xtb: 6.7.1 (edcfbbe)
          04112512153D

 21 20  0     0  0            999 V2000
    2.0923   -0.6961   -0.7791 C   0  0  0  0  0  0  0  0  0  0  0  0
    1.4758   -0.4735    0.5972 C   0  0  0  0  0  0  0  0  0  0  0  0
    0.1987    0.3781    0.5671 C   0  0  0  0  0  0  0  0  0  0  0  0
   -0.1900    0.4292    1.5994 H   0  0  0  0  0  0  0  0  0  0  0  0
   -0.9193   -0.1841   -0.3355 C   0  0  0  0  0  0  0  0  0  0  0  0
   -1.2891   -1.6100    0.0678 C   0  0  0  0  0  0  0  0  0  0  0  0
   -2.1648    0.7031   -0.2646 C   0  0  0  0  0  0  0  0  0  0  0  0
    0.5997    1.6786    0.1618 O   0  0  0  0  0  0  0  0  0  0  0  0
    3.0700   -1.1599   -0.6763 H   0  0  0  0  0  0  0  0  0  0  0  0
    2.2115    0.2588   -1.2845 H   0  0  0  0  0  0  0  0  0  0  0  0
    1.4696   -1.3426   -1.3914 H   0  0  0  0  0  0  0  0  0  0  0  0
    1.2632   -1.4267    1.0797 H   0  0  0  0  0  0  0  0  0  0  0  0
    2.1933    0.0659    1.2192 H   0  0  0  0  0  0  0  0  0  0  0  0
   -0.5541   -0.1808   -1.3667 H   0  0  0  0  0  0  0  0  0  0  0  0
   -1.5604   -1.6451    1.1209 H   0  0  0  0  0  0  0  0  0  0  0  0
   -2.1402   -1.9502   -0.5171 H   0  0  0  0  0  0  0  0  0  0  0  0
   -0.4670   -2.2985   -0.1017 H   0  0  0  0  0  0  0  0  0  0  0  0
   -1.9702    1.6947   -0.6658 H   0  0  0  0  0  0  0  0  0  0  0  0
   -2.5076    0.7967    0.7645 H   0  0  0  0  0  0  0  0  0  0  0  0
   -2.9661    0.2615   -0.8520 H   0  0  0  0  0  0  0  0  0  0  0  0
   -0.1453    2.2851    0.2557 H   0  0  0  0  0  0  0  0  0  0  0  0
  1  2  1  0  0  0  0
  2  3  1  0  0  0  0
  3  4  1  0  0  0  0
  3  5  1  0  0  0  0
  5  6  1  0  0  0  0
  5  7  1  0  0  0  0
  3  8  1  0  0  0  0
  1  9  1  0  0  0  0
  1 10  1  0  0  0  0
  1 11  1  0  0  0  0
  2 12  1  0  0  0  0
  2 13  1  0  0  0  0
  5 14  1  0  0  0  0
  6 15  1  0  0  0  0
  6 16  1  0  0  0  0
  6 17  1  0  0  0  0
  7 18  1  0  0  0  0
  7 19  1  0  0  0  0
  7 20  1  0  0  0  0
  8 21  1  0  0  0  0
M  END
