 xtb: 6.7.1 (edcfbbe)
          04112511523D

 13 12  0     0  0            999 V2000
   -1.6354   -0.8124    0.0497 C   0  0  0  0  0  0  0  0  0  0  0  0
   -1.2860    0.5190   -0.2749 O   0  0  0  0  0  0  0  0  0  0  0  0
   -0.0422    0.9519    0.2406 C   0  0  0  0  0  0  0  0  0  0  0  0
    1.1842    0.2865   -0.4119 C   0  0  0  0  0  0  0  0  0  0  0  0
    1.7352   -0.7643    0.3519 O   0  0  0  0  0  0  0  0  0  0  0  0
   -1.0234   -1.5340   -0.5003 H   0  0  0  0  0  0  0  0  0  0  0  0
   -2.6747   -0.9290   -0.2490 H   0  0  0  0  0  0  0  0  0  0  0  0
   -1.5407   -0.9893    1.1260 H   0  0  0  0  0  0  0  0  0  0  0  0
   -0.0282    2.0239    0.0410 H   0  0  0  0  0  0  0  0  0  0  0  0
    0.0001    0.7869    1.3267 H   0  0  0  0  0  0  0  0  0  0  0  0
    1.9881    1.0189   -0.4985 H   0  0  0  0  0  0  0  0  0  0  0  0
    0.9135   -0.0563   -1.4183 H   0  0  0  0  0  0  0  0  0  0  0  0
    1.1130   -1.5032    0.3994 H   0  0  0  0  0  0  0  0  0  0  0  0
  1  2  1  0  0  0  0
  2  3  1  0  0  0  0
  3  4  1  0  0  0  0
  4  5  1  0  0  0  0
  1  6  1  0  0  0  0
  1  7  1  0  0  0  0
  1  8  1  0  0  0  0
  3  9  1  0  0  0  0
  3 10  1  0  0  0  0
  4 11  1  0  0  0  0
  4 12  1  0  0  0  0
  5 13  1  0  0  0  0
M  END
