 xtb: 6.7.1 (edcfbbe)
          04112511553D

 24 24  0     0  0            999 V2000
   -2.9081    0.8443   -0.4304 C   0  0  0  0  0  0  0  0  0  0  0  0
   -2.3828   -0.1975    0.5515 C   0  0  0  0  0  0  0  0  0  0  0  0
   -1.1622   -0.9686    0.0332 C   0  0  0  0  0  0  0  0  0  0  0  0
    0.1857   -0.3434    0.3886 C   0  0  0  0  0  0  0  0  0  0  0  0
    1.3639   -1.2250   -0.0381 C   0  0  0  0  0  0  0  0  0  0  0  0
    2.5833   -0.2982    0.0069 C   0  0  0  0  0  0  0  0  0  0  0  0
    2.0287    1.1313   -0.1489 C   0  0  0  0  0  0  0  0  0  0  0  0
    0.5111    0.9796   -0.3065 C   0  0  0  0  0  0  0  0  0  0  0  0
   -2.1570    1.5977   -0.6463 H   0  0  0  0  0  0  0  0  0  0  0  0
   -3.1957    0.3695   -1.3659 H   0  0  0  0  0  0  0  0  0  0  0  0
   -3.7831    1.3416   -0.0177 H   0  0  0  0  0  0  0  0  0  0  0  0
   -2.1302    0.2862    1.4972 H   0  0  0  0  0  0  0  0  0  0  0  0
   -3.1874   -0.9080    0.7542 H   0  0  0  0  0  0  0  0  0  0  0  0
   -1.1755   -1.9741    0.4615 H   0  0  0  0  0  0  0  0  0  0  0  0
   -1.2367   -1.0757   -1.0514 H   0  0  0  0  0  0  0  0  0  0  0  0
    0.2311   -0.1939    1.4729 H   0  0  0  0  0  0  0  0  0  0  0  0
    1.4838   -2.0968    0.6037 H   0  0  0  0  0  0  0  0  0  0  0  0
    1.1940   -1.5754   -1.0578 H   0  0  0  0  0  0  0  0  0  0  0  0
    3.1003   -0.4004    0.9611 H   0  0  0  0  0  0  0  0  0  0  0  0
    3.2943   -0.5427   -0.7810 H   0  0  0  0  0  0  0  0  0  0  0  0
    2.2548    1.7206    0.7401 H   0  0  0  0  0  0  0  0  0  0  0  0
    2.4661    1.6444   -1.0043 H   0  0  0  0  0  0  0  0  0  0  0  0
   -0.0217    1.8243    0.1265 H   0  0  0  0  0  0  0  0  0  0  0  0
    0.2471    0.9053   -1.3627 H   0  0  0  0  0  0  0  0  0  0  0  0
  1  2  1  0  0  0  0
  2  3  1  0  0  0  0
  3  4  1  0  0  0  0
  4  5  1  0  0  0  0
  5  6  1  0  0  0  0
  6  7  1  0  0  0  0
  4  8  1  0  0  0  0
  7  8  1  0  0  0  0
  1  9  1  0  0  0  0
  1 10  1  0  0  0  0
  1 11  1  0  0  0  0
  2 12  1  0  0  0  0
  2 13  1  0  0  0  0
  3 14  1  0  0  0  0
  3 15  1  0  0  0  0
  4 16  1  0  0  0  0
  5 17  1  0  0  0  0
  5 18  1  0  0  0  0
  6 19  1  0  0  0  0
  6 20  1  0  0  0  0
  7 21  1  0  0  0  0
  7 22  1  0  0  0  0
  8 23  1  0  0  0  0
  8 24  1  0  0  0  0
M  END
