 xtb: 6.7.1 (edcfbbe)
          04112511523D

 13 12  0     0  0            999 V2000
    1.8164   -1.2722   -0.0127 C   0  0  0  0  0  0  0  0  0  0  0  0
    1.1941   -0.2606   -0.8194 O   0  0  0  0  0  0  0  0  0  0  0  0
   -0.0280    0.4503   -0.1558 S   0  0  0  0  0  0  0  0  0  0  0  0
   -0.4552    1.4434   -1.0893 O   0  0  0  0  0  0  0  0  0  0  0  0
    0.2999    0.8773    1.1743 O   0  0  0  0  0  0  0  0  0  0  0  0
   -1.0947   -0.7008   -0.1064 O   0  0  0  0  0  0  0  0  0  0  0  0
   -1.6987   -1.0695    1.1440 C   0  0  0  0  0  0  0  0  0  0  0  0
    1.2134   -2.1786   -0.0497 H   0  0  0  0  0  0  0  0  0  0  0  0
    1.8958   -0.9025    1.0091 H   0  0  0  0  0  0  0  0  0  0  0  0
    2.7990   -1.4407   -0.4458 H   0  0  0  0  0  0  0  0  0  0  0  0
   -2.7488   -0.7833    1.1132 H   0  0  0  0  0  0  0  0  0  0  0  0
   -1.1853   -0.5453    1.9478 H   0  0  0  0  0  0  0  0  0  0  0  0
   -1.5961   -2.1482    1.2489 H   0  0  0  0  0  0  0  0  0  0  0  0
  1  2  1  0  0  0  0
  2  3  1  0  0  0  0
  3  4  2  0  0  0  0
  3  5  2  0  0  0  0
  3  6  1  0  0  0  0
  6  7  1  0  0  0  0
  1  8  1  0  0  0  0
  1  9  1  0  0  0  0
  1 10  1  0  0  0  0
  7 11  1  0  0  0  0
  7 12  1  0  0  0  0
  7 13  1  0  0  0  0
M  END
