 xtb: 6.7.1 (edcfbbe)
          04112512193D

 17 16  0     0  0            999 V2000
   -2.5851    0.5322    0.6349 C   0  0  0  0  0  0  0  0  0  0  0  0
   -1.7284    0.3983   -0.6273 C   0  0  0  0  0  0  0  0  0  0  0  0
   -0.4259   -0.2769   -0.2834 C   0  0  0  0  0  0  0  0  0  0  0  0
   -0.1710   -1.4432   -0.5028 O   0  0  0  0  0  0  0  0  0  0  0  0
    0.4049    0.5560    0.3292 O   0  0  0  0  0  0  0  0  0  0  0  0
    1.6848    0.0613    0.7555 C   0  0  0  0  0  0  0  0  0  0  0  0
    2.7189    0.1950   -0.3519 C   0  0  0  0  0  0  0  0  0  0  0  0
   -2.0695    1.1374    1.3759 H   0  0  0  0  0  0  0  0  0  0  0  0
   -3.5301    1.0062    0.3874 H   0  0  0  0  0  0  0  0  0  0  0  0
   -2.7865   -0.4479    1.0609 H   0  0  0  0  0  0  0  0  0  0  0  0
   -1.5136    1.3869   -1.0313 H   0  0  0  0  0  0  0  0  0  0  0  0
   -2.2434   -0.2074   -1.3720 H   0  0  0  0  0  0  0  0  0  0  0  0
    1.9454    0.6762    1.6176 H   0  0  0  0  0  0  0  0  0  0  0  0
    1.5730   -0.9856    1.0540 H   0  0  0  0  0  0  0  0  0  0  0  0
    2.4443   -0.4338   -1.1961 H   0  0  0  0  0  0  0  0  0  0  0  0
    2.7793    1.2278   -0.6844 H   0  0  0  0  0  0  0  0  0  0  0  0
    3.6881   -0.1194    0.0210 H   0  0  0  0  0  0  0  0  0  0  0  0
  1  2  1  0  0  0  0
  2  3  1  0  0  0  0
  3  4  2  0  0  0  0
  3  5  1  0  0  0  0
  5  6  1  0  0  0  0
  6  7  1  0  0  0  0
  1  8  1  0  0  0  0
  1  9  1  0  0  0  0
  1 10  1  0  0  0  0
  2 11  1  0  0  0  0
  2 12  1  0  0  0  0
  6 13  1  0  0  0  0
  6 14  1  0  0  0  0
  7 15  1  0  0  0  0
  7 16  1  0  0  0  0
  7 17  1  0  0  0  0
M  END
