 xtb: 6.7.1 (edcfbbe)
          04112512223D

 23 22  0     0  0            999 V2000
   -2.4220    0.7582    0.6168 C   0  0  0  0  0  0  0  0  0  0  0  0
   -1.2848   -0.1709    0.1919 C   0  0  0  0  0  0  0  0  0  0  0  0
   -1.6758   -0.9138   -1.0840 C   0  0  0  0  0  0  0  0  0  0  0  0
   -0.0002    0.6451    0.0028 C   0  0  0  0  0  0  0  0  0  0  0  0
    1.2836   -0.1712   -0.1909 C   0  0  0  0  0  0  0  0  0  0  0  0
    2.4200    0.7571   -0.6198 C   0  0  0  0  0  0  0  0  0  0  0  0
    1.6789   -0.9145    1.0834 C   0  0  0  0  0  0  0  0  0  0  0  0
   -3.3421    0.1959    0.7585 H   0  0  0  0  0  0  0  0  0  0  0  0
   -2.1804    1.2604    1.5508 H   0  0  0  0  0  0  0  0  0  0  0  0
   -2.5964    1.5151   -0.1451 H   0  0  0  0  0  0  0  0  0  0  0  0
   -1.1302   -0.9044    0.9895 H   0  0  0  0  0  0  0  0  0  0  0  0
   -1.8073   -0.2114   -1.9044 H   0  0  0  0  0  0  0  0  0  0  0  0
   -0.9159   -1.6368   -1.3677 H   0  0  0  0  0  0  0  0  0  0  0  0
   -2.6116   -1.4485   -0.9372 H   0  0  0  0  0  0  0  0  0  0  0  0
    0.1358    1.2902    0.8748 H   0  0  0  0  0  0  0  0  0  0  0  0
   -0.1357    1.2949   -0.8657 H   0  0  0  0  0  0  0  0  0  0  0  0
    1.1258   -0.9044   -0.9880 H   0  0  0  0  0  0  0  0  0  0  0  0
    2.6002    1.5116    0.1432 H   0  0  0  0  0  0  0  0  0  0  0  0
    3.3383    0.1935   -0.7683 H   0  0  0  0  0  0  0  0  0  0  0  0
    2.1740    1.2623   -1.5509 H   0  0  0  0  0  0  0  0  0  0  0  0
    2.6080   -1.4587    0.9297 H   0  0  0  0  0  0  0  0  0  0  0  0
    1.8248   -0.2110    1.9006 H   0  0  0  0  0  0  0  0  0  0  0  0
    0.9144   -1.6290    1.3761 H   0  0  0  0  0  0  0  0  0  0  0  0
  1  2  1  0  0  0  0
  2  3  1  0  0  0  0
  2  4  1  0  0  0  0
  4  5  1  0  0  0  0
  5  6  1  0  0  0  0
  5  7  1  0  0  0  0
  1  8  1  0  0  0  0
  1  9  1  0  0  0  0
  1 10  1  0  0  0  0
  2 11  1  0  0  0  0
  3 12  1  0  0  0  0
  3 13  1  0  0  0  0
  3 14  1  0  0  0  0
  4 15  1  0  0  0  0
  4 16  1  0  0  0  0
  5 17  1  0  0  0  0
  6 18  1  0  0  0  0
  6 19  1  0  0  0  0
  6 20  1  0  0  0  0
  7 21  1  0  0  0  0
  7 22  1  0  0  0  0
  7 23  1  0  0  0  0
M  END
