 xtb: 6.7.1 (edcfbbe)
          04112511443D

 25 25  0     0  0            999 V2000
    2.2064   -0.4930    1.6867 C   0  0  0  0  0  0  0  0  0  0  0  0
    2.4560   -0.1388    0.2477 C   0  0  0  0  0  0  0  0  0  0  0  0
    3.6587   -0.2486   -0.2952 C   0  0  0  0  0  0  0  0  0  0  0  0
    1.2713    0.3356   -0.5600 C   0  0  0  0  0  0  0  0  0  0  0  0
    1.6464    0.7350   -1.5060 H   0  0  0  0  0  0  0  0  0  0  0  0
    0.3702   -0.8666   -0.8872 C   0  0  0  0  0  0  0  0  0  0  0  0
   -1.0474   -0.4224   -1.2463 C   0  0  0  0  0  0  0  0  0  0  0  0
   -1.6268    0.2743   -0.0521 C   0  0  0  0  0  0  0  0  0  0  0  0
   -0.8504    1.1291    0.6350 C   0  0  0  0  0  0  0  0  0  0  0  0
    0.5176    1.4727    0.1788 C   0  0  0  0  0  0  0  0  0  0  0  0
   -2.9740   -0.0263    0.3784 C   0  0  0  0  0  0  0  0  0  0  0  0
   -3.7370   -0.8079   -0.1630 O   0  0  0  0  0  0  0  0  0  0  0  0
    2.7598   -1.3879    1.9603 H   0  0  0  0  0  0  0  0  0  0  0  0
    2.5446    0.3128    2.3373 H   0  0  0  0  0  0  0  0  0  0  0  0
    1.1494   -0.6604    1.8754 H   0  0  0  0  0  0  0  0  0  0  0  0
    3.8494    0.0151   -1.3214 H   0  0  0  0  0  0  0  0  0  0  0  0
    4.5031   -0.6107    0.2665 H   0  0  0  0  0  0  0  0  0  0  0  0
    0.8115   -1.4279   -1.7109 H   0  0  0  0  0  0  0  0  0  0  0  0
    0.3110   -1.5353   -0.0264 H   0  0  0  0  0  0  0  0  0  0  0  0
   -1.0196    0.2574   -2.1010 H   0  0  0  0  0  0  0  0  0  0  0  0
   -1.6736   -1.2761   -1.5099 H   0  0  0  0  0  0  0  0  0  0  0  0
   -1.2261    1.6227    1.5201 H   0  0  0  0  0  0  0  0  0  0  0  0
    0.4099    2.3132   -0.5137 H   0  0  0  0  0  0  0  0  0  0  0  0
    1.1125    1.8367    1.0156 H   0  0  0  0  0  0  0  0  0  0  0  0
   -3.3023    0.5243    1.2808 H   0  0  0  0  0  0  0  0  0  0  0  0
  1  2  1  0  0  0  0
  2  3  2  0  0  0  0
  2  4  1  0  0  0  0
  4  5  1  0  0  0  0
  4  6  1  0  0  0  0
  6  7  1  0  0  0  0
  7  8  1  0  0  0  0
  8  9  2  0  0  0  0
  4 10  1  0  0  0  0
  9 10  1  0  0  0  0
  8 11  1  0  0  0  0
 11 12  2  0  0  0  0
  1 13  1  0  0  0  0
  1 14  1  0  0  0  0
  1 15  1  0  0  0  0
  3 16  1  0  0  0  0
  3 17  1  0  0  0  0
  6 18  1  0  0  0  0
  6 19  1  0  0  0  0
  7 20  1  0  0  0  0
  7 21  1  0  0  0  0
  9 22  1  0  0  0  0
 10 23  1  0  0  0  0
 10 24  1  0  0  0  0
 11 25  1  0  0  0  0
M  END
