 xtb: 6.7.1 (edcfbbe)
          04112511553D

 24 24  0     0  0            999 V2000
   -2.1856   -0.2408   -1.1990 C   0  0  0  0  0  0  0  0  0  0  0  0
   -2.2042    0.3218    0.2174 C   0  0  0  0  0  0  0  0  0  0  0  0
   -1.2190   -0.3332    1.1904 C   0  0  0  0  0  0  0  0  0  0  0  0
    0.2837   -0.1919    0.9037 C   0  0  0  0  0  0  0  0  0  0  0  0
    0.8519   -1.1992   -0.1227 C   0  0  0  0  0  0  0  0  0  0  0  0
    1.8155   -0.4056   -1.0182 C   0  0  0  0  0  0  0  0  0  0  0  0
    2.0951    0.8804   -0.2417 C   0  0  0  0  0  0  0  0  0  0  0  0
    0.7463    1.1815    0.4026 C   0  0  0  0  0  0  0  0  0  0  0  0
   -2.9862    0.2060   -1.7853 H   0  0  0  0  0  0  0  0  0  0  0  0
   -1.2443   -0.0262   -1.6962 H   0  0  0  0  0  0  0  0  0  0  0  0
   -2.3368   -1.3182   -1.1844 H   0  0  0  0  0  0  0  0  0  0  0  0
   -2.0251    1.3978    0.1840 H   0  0  0  0  0  0  0  0  0  0  0  0
   -3.2060    0.1791    0.6316 H   0  0  0  0  0  0  0  0  0  0  0  0
   -1.4120    0.1020    2.1748 H   0  0  0  0  0  0  0  0  0  0  0  0
   -1.4483   -1.3996    1.2600 H   0  0  0  0  0  0  0  0  0  0  0  0
    0.7935   -0.3765    1.8565 H   0  0  0  0  0  0  0  0  0  0  0  0
    1.3815   -1.9984    0.3968 H   0  0  0  0  0  0  0  0  0  0  0  0
    0.0624   -1.6626   -0.7088 H   0  0  0  0  0  0  0  0  0  0  0  0
    2.7251   -0.9620   -1.2400 H   0  0  0  0  0  0  0  0  0  0  0  0
    1.3340   -0.1590   -1.9661 H   0  0  0  0  0  0  0  0  0  0  0  0
    2.8455    0.6979    0.5296 H   0  0  0  0  0  0  0  0  0  0  0  0
    2.4473    1.6879   -0.8823 H   0  0  0  0  0  0  0  0  0  0  0  0
    0.8128    1.9115    1.2085 H   0  0  0  0  0  0  0  0  0  0  0  0
    0.0678    1.5657   -0.3575 H   0  0  0  0  0  0  0  0  0  0  0  0
  1  2  1  0  0  0  0
  2  3  1  0  0  0  0
  3  4  1  0  0  0  0
  4  5  1  0  0  0  0
  5  6  1  0  0  0  0
  6  7  1  0  0  0  0
  4  8  1  0  0  0  0
  7  8  1  0  0  0  0
  1  9  1  0  0  0  0
  1 10  1  0  0  0  0
  1 11  1  0  0  0  0
  2 12  1  0  0  0  0
  2 13  1  0  0  0  0
  3 14  1  0  0  0  0
  3 15  1  0  0  0  0
  4 16  1  0  0  0  0
  5 17  1  0  0  0  0
  5 18  1  0  0  0  0
  6 19  1  0  0  0  0
  6 20  1  0  0  0  0
  7 21  1  0  0  0  0
  7 22  1  0  0  0  0
  8 23  1  0  0  0  0
  8 24  1  0  0  0  0
M  END
