 xtb: 6.7.1 (edcfbbe)
          04112511493D

 17 16  0     0  0            999 V2000
   -2.1963    1.0144   -0.6449 C   0  0  0  0  0  0  0  0  0  0  0  0
   -2.0889   -0.2946    0.1279 C   0  0  0  0  0  0  0  0  0  0  0  0
   -0.8229   -0.3381    0.9887 C   0  0  0  0  0  0  0  0  0  0  0  0
    0.4142   -0.3882    0.1307 C   0  0  0  0  0  0  0  0  0  0  0  0
    0.5951   -1.1527   -0.7937 O   0  0  0  0  0  0  0  0  0  0  0  0
    1.3133    0.5141    0.5108 O   0  0  0  0  0  0  0  0  0  0  0  0
    2.5486    0.5630   -0.2077 C   0  0  0  0  0  0  0  0  0  0  0  0
   -1.3517    1.1251   -1.3226 H   0  0  0  0  0  0  0  0  0  0  0  0
   -3.1100    1.0335   -1.2328 H   0  0  0  0  0  0  0  0  0  0  0  0
   -2.2044    1.8617    0.0366 H   0  0  0  0  0  0  0  0  0  0  0  0
   -2.0635   -1.1324   -0.5715 H   0  0  0  0  0  0  0  0  0  0  0  0
   -2.9590   -0.4114    0.7742 H   0  0  0  0  0  0  0  0  0  0  0  0
   -0.8298   -1.2433    1.5988 H   0  0  0  0  0  0  0  0  0  0  0  0
   -0.7584    0.5320    1.6409 H   0  0  0  0  0  0  0  0  0  0  0  0
    3.0268   -0.4170   -0.1950 H   0  0  0  0  0  0  0  0  0  0  0  0
    3.1564    1.3027    0.3034 H   0  0  0  0  0  0  0  0  0  0  0  0
    2.3656    0.8544   -1.2427 H   0  0  0  0  0  0  0  0  0  0  0  0
  1  2  1  0  0  0  0
  2  3  1  0  0  0  0
  3  4  1  0  0  0  0
  4  5  2  0  0  0  0
  4  6  1  0  0  0  0
  6  7  1  0  0  0  0
  1  8  1  0  0  0  0
  1  9  1  0  0  0  0
  1 10  1  0  0  0  0
  2 11  1  0  0  0  0
  2 12  1  0  0  0  0
  3 13  1  0  0  0  0
  3 14  1  0  0  0  0
  7 15  1  0  0  0  0
  7 16  1  0  0  0  0
  7 17  1  0  0  0  0
M  END
