 xtb: 6.7.1 (edcfbbe)
          04112512223D

 16 15  0     0  0            999 V2000
   -1.9485    0.2716    0.6286 C   0  0  0  0  0  0  0  0  0  0  0  0
   -1.0680    0.2361   -0.6172 C   0  0  0  0  0  0  0  0  0  0  0  0
   -0.0208   -0.7714   -0.5088 N   0  0  0  0  0  0  0  0  0  0  0  0
    1.0481   -0.4885    0.4348 C   0  0  0  0  0  0  0  0  0  0  0  0
    1.9634    0.6852    0.0682 C   0  0  0  0  0  0  0  0  0  0  0  0
   -1.4122    0.6830    1.4793 H   0  0  0  0  0  0  0  0  0  0  0  0
   -2.8206    0.8923    0.4419 H   0  0  0  0  0  0  0  0  0  0  0  0
   -2.2746   -0.7347    0.8746 H   0  0  0  0  0  0  0  0  0  0  0  0
   -0.6729    1.2473   -0.8122 H   0  0  0  0  0  0  0  0  0  0  0  0
   -1.6844   -0.0477   -1.4741 H   0  0  0  0  0  0  0  0  0  0  0  0
    0.3873   -0.9238   -1.4256 H   0  0  0  0  0  0  0  0  0  0  0  0
    0.5974   -0.3121    1.4131 H   0  0  0  0  0  0  0  0  0  0  0  0
    1.6492   -1.3997    0.5047 H   0  0  0  0  0  0  0  0  0  0  0  0
    2.7643    0.7693    0.7974 H   0  0  0  0  0  0  0  0  0  0  0  0
    2.4039    0.5293   -0.9151 H   0  0  0  0  0  0  0  0  0  0  0  0
    1.4120    1.6225    0.0567 H   0  0  0  0  0  0  0  0  0  0  0  0
  1  2  1  0  0  0  0
  2  3  1  0  0  0  0
  3  4  1  0  0  0  0
  4  5  1  0  0  0  0
  1  6  1  0  0  0  0
  1  7  1  0  0  0  0
  1  8  1  0  0  0  0
  2  9  1  0  0  0  0
  2 10  1  0  0  0  0
  3 11  1  0  0  0  0
  4 12  1  0  0  0  0
  4 13  1  0  0  0  0
  5 14  1  0  0  0  0
  5 15  1  0  0  0  0
  5 16  1  0  0  0  0
M  END
