 xtb: 6.7.1 (edcfbbe)
          04112511193D

 14 13  0     0  0            999 V2000
   -1.4557    0.3796   -0.2365 C   0  0  0  0  0  0  0  0  0  0  0  0
   -0.0104    0.3782    0.2759 C   0  0  0  0  0  0  0  0  0  0  0  0
    0.8031   -0.7441   -0.3815 C   0  0  0  0  0  0  0  0  0  0  0  0
    2.0929   -0.8552    0.1715 O   0  0  0  0  0  0  0  0  0  0  0  0
    0.6104    1.6301    0.0830 O   0  0  0  0  0  0  0  0  0  0  0  0
   -2.0666   -0.8323    0.1406 O   0  0  0  0  0  0  0  0  0  0  0  0
   -1.4506    0.4853   -1.3311 H   0  0  0  0  0  0  0  0  0  0  0  0
   -1.9772    1.2392    0.2037 H   0  0  0  0  0  0  0  0  0  0  0  0
   -0.0178    0.2178    1.3589 H   0  0  0  0  0  0  0  0  0  0  0  0
    0.8719   -0.5598   -1.4645 H   0  0  0  0  0  0  0  0  0  0  0  0
    0.3022   -1.6987   -0.2151 H   0  0  0  0  0  0  0  0  0  0  0  0
    2.4624    0.0375    0.2556 H   0  0  0  0  0  0  0  0  0  0  0  0
    0.5939    1.8548   -0.8594 H   0  0  0  0  0  0  0  0  0  0  0  0
   -2.9915   -0.8278   -0.1433 H   0  0  0  0  0  0  0  0  0  0  0  0
  1  2  1  0  0  0  0
  2  3  1  0  0  0  0
  3  4  1  0  0  0  0
  2  5  1  0  0  0  0
  1  6  1  0  0  0  0
  1  7  1  0  0  0  0
  1  8  1  0  0  0  0
  2  9  1  0  0  0  0
  3 10  1  0  0  0  0
  3 11  1  0  0  0  0
  4 12  1  0  0  0  0
  5 13  1  0  0  0  0
  6 14  1  0  0  0  0
M  END
