 xtb: 6.7.1 (edcfbbe)
          04072505513D

 15 14  0     0  0            999 V2000
    2.3289   -0.5182    0.5785 C   0  0  0  0  0  0  0  0  0  0  0  0
    1.4881   -0.1593   -0.6415 C   0  0  0  0  0  0  0  0  0  0  0  0
    0.5833    1.0518   -0.4126 C   0  0  0  0  0  0  0  0  0  0  0  0
   -0.5614    0.7873    0.5538 C   0  0  0  0  0  0  0  0  0  0  0  0
   -1.7071   -0.5191   -0.0279 S   0  0  0  0  0  0  0  0  0  0  0  0
    1.7016   -0.8344    1.4084 H   0  0  0  0  0  0  0  0  0  0  0  0
    2.9218    0.3359    0.8990 H   0  0  0  0  0  0  0  0  0  0  0  0
    3.0044   -1.3359    0.3398 H   0  0  0  0  0  0  0  0  0  0  0  0
    0.8730   -1.0170   -0.9232 H   0  0  0  0  0  0  0  0  0  0  0  0
    2.1539    0.0609   -1.4782 H   0  0  0  0  0  0  0  0  0  0  0  0
    0.1689    1.3731   -1.3710 H   0  0  0  0  0  0  0  0  0  0  0  0
    1.1757    1.8770   -0.0101 H   0  0  0  0  0  0  0  0  0  0  0  0
   -0.1996    0.4234    1.5139 H   0  0  0  0  0  0  0  0  0  0  0  0
   -1.1540    1.6865    0.7181 H   0  0  0  0  0  0  0  0  0  0  0  0
   -2.0831    0.1009   -1.1401 H   0  0  0  0  0  0  0  0  0  0  0  0
  1  2  1  0  0  0  0
  2  3  1  0  0  0  0
  3  4  1  0  0  0  0
  4  5  1  0  0  0  0
  1  6  1  0  0  0  0
  1  7  1  0  0  0  0
  1  8  1  0  0  0  0
  2  9  1  0  0  0  0
  2 10  1  0  0  0  0
  3 11  1  0  0  0  0
  3 12  1  0  0  0  0
  4 13  1  0  0  0  0
  4 14  1  0  0  0  0
  5 15  1  0  0  0  0
M  END
