 xtb: 6.7.1 (edcfbbe)
          04112511523D

 13 12  0     0  0            999 V2000
    1.8628   -1.2431   -0.0111 C   0  0  0  0  0  0  0  0  0  0  0  0
    0.9422   -0.4827   -0.8060 O   0  0  0  0  0  0  0  0  0  0  0  0
    0.0003    0.4796   -0.0000 S   0  0  0  0  0  0  0  0  0  0  0  0
   -0.7426    1.2094   -0.9791 O   0  0  0  0  0  0  0  0  0  0  0  0
    0.7449    1.2091    0.9783 O   0  0  0  0  0  0  0  0  0  0  0  0
   -0.9351   -0.4903    0.8017 O   0  0  0  0  0  0  0  0  0  0  0  0
   -1.8728   -1.2462    0.0167 C   0  0  0  0  0  0  0  0  0  0  0  0
    1.3333   -2.0650    0.4693 H   0  0  0  0  0  0  0  0  0  0  0  0
    2.2961   -0.5863    0.7420 H   0  0  0  0  0  0  0  0  0  0  0  0
    2.6197   -1.6111   -0.6991 H   0  0  0  0  0  0  0  0  0  0  0  0
   -2.8703   -0.8483    0.1956 H   0  0  0  0  0  0  0  0  0  0  0  0
   -1.8051   -2.2821    0.3435 H   0  0  0  0  0  0  0  0  0  0  0  0
   -1.6153   -1.1462   -1.0357 H   0  0  0  0  0  0  0  0  0  0  0  0
  1  2  1  0  0  0  0
  2  3  1  0  0  0  0
  3  4  2  0  0  0  0
  3  5  2  0  0  0  0
  3  6  1  0  0  0  0
  6  7  1  0  0  0  0
  1  8  1  0  0  0  0
  1  9  1  0  0  0  0
  1 10  1  0  0  0  0
  7 11  1  0  0  0  0
  7 12  1  0  0  0  0
  7 13  1  0  0  0  0
M  END
