 xtb: 6.7.1 (edcfbbe)
          04112511223D

 22 21  0     0  0            999 V2000
    2.2786    0.9931    0.5735 C   0  0  0  0  0  0  0  0  0  0  0  0
    1.1927   -0.0807    0.5142 C   0  0  0  0  0  0  0  0  0  0  0  0
    1.6905   -1.2998   -0.2741 C   0  0  0  0  0  0  0  0  0  0  0  0
   -0.0298    0.4482   -0.2126 C   0  0  0  0  0  0  0  0  0  0  0  0
    0.0949    1.1643   -1.1883 O   0  0  0  0  0  0  0  0  0  0  0  0
   -1.4201    0.0813    0.2857 C   0  0  0  0  0  0  0  0  0  0  0  0
   -1.5038   -1.0534    1.3021 C   0  0  0  0  0  0  0  0  0  0  0  0
   -2.3308   -0.2013   -0.9143 C   0  0  0  0  0  0  0  0  0  0  0  0
    3.1871    0.5851    1.0076 H   0  0  0  0  0  0  0  0  0  0  0  0
    1.9477    1.8353    1.1771 H   0  0  0  0  0  0  0  0  0  0  0  0
    2.4967    1.3565   -0.4282 H   0  0  0  0  0  0  0  0  0  0  0  0
    0.9323   -0.3895    1.5259 H   0  0  0  0  0  0  0  0  0  0  0  0
    2.5775   -1.7077    0.2028 H   0  0  0  0  0  0  0  0  0  0  0  0
    0.9305   -2.0753   -0.3195 H   0  0  0  0  0  0  0  0  0  0  0  0
    1.9426   -1.0032   -1.2901 H   0  0  0  0  0  0  0  0  0  0  0  0
   -1.7777    1.0036    0.7644 H   0  0  0  0  0  0  0  0  0  0  0  0
   -1.0594   -1.9641    0.9104 H   0  0  0  0  0  0  0  0  0  0  0  0
   -1.0182   -0.7952    2.2386 H   0  0  0  0  0  0  0  0  0  0  0  0
   -2.5507   -1.2548    1.5162 H   0  0  0  0  0  0  0  0  0  0  0  0
   -2.2239    0.5850   -1.6574 H   0  0  0  0  0  0  0  0  0  0  0  0
   -2.0588   -1.1487   -1.3742 H   0  0  0  0  0  0  0  0  0  0  0  0
   -3.3693   -0.2505   -0.5997 H   0  0  0  0  0  0  0  0  0  0  0  0
  1  2  1  0  0  0  0
  2  3  1  0  0  0  0
  2  4  1  0  0  0  0
  4  5  2  0  0  0  0
  4  6  1  0  0  0  0
  6  7  1  0  0  0  0
  6  8  1  0  0  0  0
  1  9  1  0  0  0  0
  1 10  1  0  0  0  0
  1 11  1  0  0  0  0
  2 12  1  0  0  0  0
  3 13  1  0  0  0  0
  3 14  1  0  0  0  0
  3 15  1  0  0  0  0
  6 16  1  0  0  0  0
  7 17  1  0  0  0  0
  7 18  1  0  0  0  0
  7 19  1  0  0  0  0
  8 20  1  0  0  0  0
  8 21  1  0  0  0  0
  8 22  1  0  0  0  0
M  END
