 xtb: 6.7.1 (edcfbbe)
          04112511553D

 24 24  0     0  0            999 V2000
   -3.5971    0.0208   -0.2434 C   0  0  0  0  0  0  0  0  0  0  0  0
   -2.2393    0.3255    0.3788 C   0  0  0  0  0  0  0  0  0  0  0  0
   -1.1321   -0.5311   -0.2324 C   0  0  0  0  0  0  0  0  0  0  0  0
    0.2384   -0.2513    0.3799 C   0  0  0  0  0  0  0  0  0  0  0  0
    1.3179   -1.2216   -0.1139 C   0  0  0  0  0  0  0  0  0  0  0  0
    2.6168   -0.4666    0.1419 C   0  0  0  0  0  0  0  0  0  0  0  0
    2.2809    0.9549   -0.3092 C   0  0  0  0  0  0  0  0  0  0  0  0
    0.7954    1.1476    0.0433 C   0  0  0  0  0  0  0  0  0  0  0  0
   -3.5792    0.2206   -1.3125 H   0  0  0  0  0  0  0  0  0  0  0  0
   -3.8575   -1.0249   -0.0956 H   0  0  0  0  0  0  0  0  0  0  0  0
   -4.3718    0.6356    0.2083 H   0  0  0  0  0  0  0  0  0  0  0  0
   -2.0041    1.3818    0.2353 H   0  0  0  0  0  0  0  0  0  0  0  0
   -2.2834    0.1401    1.4545 H   0  0  0  0  0  0  0  0  0  0  0  0
   -1.3765   -1.5859   -0.0816 H   0  0  0  0  0  0  0  0  0  0  0  0
   -1.0892   -0.3533   -1.3099 H   0  0  0  0  0  0  0  0  0  0  0  0
    0.1567   -0.3506    1.4674 H   0  0  0  0  0  0  0  0  0  0  0  0
    1.2770   -2.1814    0.3992 H   0  0  0  0  0  0  0  0  0  0  0  0
    1.1952   -1.3960   -1.1845 H   0  0  0  0  0  0  0  0  0  0  0  0
    2.8466   -0.4790    1.2086 H   0  0  0  0  0  0  0  0  0  0  0  0
    3.4641   -0.8858   -0.3987 H   0  0  0  0  0  0  0  0  0  0  0  0
    2.9163    1.6983    0.1701 H   0  0  0  0  0  0  0  0  0  0  0  0
    2.4234    1.0370   -1.3873 H   0  0  0  0  0  0  0  0  0  0  0  0
    0.6782    1.8219    0.8910 H   0  0  0  0  0  0  0  0  0  0  0  0
    0.2572    1.5808   -0.7996 H   0  0  0  0  0  0  0  0  0  0  0  0
  1  2  1  0  0  0  0
  2  3  1  0  0  0  0
  3  4  1  0  0  0  0
  4  5  1  0  0  0  0
  5  6  1  0  0  0  0
  6  7  1  0  0  0  0
  4  8  1  0  0  0  0
  7  8  1  0  0  0  0
  1  9  1  0  0  0  0
  1 10  1  0  0  0  0
  1 11  1  0  0  0  0
  2 12  1  0  0  0  0
  2 13  1  0  0  0  0
  3 14  1  0  0  0  0
  3 15  1  0  0  0  0
  4 16  1  0  0  0  0
  5 17  1  0  0  0  0
  5 18  1  0  0  0  0
  6 19  1  0  0  0  0
  6 20  1  0  0  0  0
  7 21  1  0  0  0  0
  7 22  1  0  0  0  0
  8 23  1  0  0  0  0
  8 24  1  0  0  0  0
M  END
