 xtb: 6.7.1 (edcfbbe)
          04112511203D

 21 20  0     0  0            999 V2000
   -2.2527    1.0919    0.2689 C   0  0  0  0  0  0  0  0  0  0  0  0
   -1.8278   -0.3605    0.0867 C   0  0  0  0  0  0  0  0  0  0  0  0
   -0.5588   -0.5665   -0.7472 C   0  0  0  0  0  0  0  0  0  0  0  0
    0.7808   -0.1492   -0.0871 C   0  0  0  0  0  0  0  0  0  0  0  0
    1.0873    1.3360   -0.2971 C   0  0  0  0  0  0  0  0  0  0  0  0
    1.9139   -0.9751   -0.7144 C   0  0  0  0  0  0  0  0  0  0  0  0
    0.7543   -0.3605    1.3205 O   0  0  0  0  0  0  0  0  0  0  0  0
   -3.2580    1.1335    0.6827 H   0  0  0  0  0  0  0  0  0  0  0  0
   -2.2506    1.6179   -0.6831 H   0  0  0  0  0  0  0  0  0  0  0  0
   -1.5879    1.6049    0.9580 H   0  0  0  0  0  0  0  0  0  0  0  0
   -1.6921   -0.8120    1.0709 H   0  0  0  0  0  0  0  0  0  0  0  0
   -2.6351   -0.8988   -0.4163 H   0  0  0  0  0  0  0  0  0  0  0  0
   -0.4990   -1.6328   -0.9815 H   0  0  0  0  0  0  0  0  0  0  0  0
   -0.6559   -0.0292   -1.6915 H   0  0  0  0  0  0  0  0  0  0  0  0
    1.1332    1.5629   -1.3577 H   0  0  0  0  0  0  0  0  0  0  0  0
    2.0452    1.5722    0.1600 H   0  0  0  0  0  0  0  0  0  0  0  0
    0.3296    1.9553    0.1684 H   0  0  0  0  0  0  0  0  0  0  0  0
    1.7544   -2.0388   -0.5472 H   0  0  0  0  0  0  0  0  0  0  0  0
    2.8665   -0.6935   -0.2715 H   0  0  0  0  0  0  0  0  0  0  0  0
    1.9578   -0.7963   -1.7847 H   0  0  0  0  0  0  0  0  0  0  0  0
    0.7346   -1.3113    1.4913 H   0  0  0  0  0  0  0  0  0  0  0  0
  1  2  1  0  0  0  0
  2  3  1  0  0  0  0
  3  4  1  0  0  0  0
  4  5  1  0  0  0  0
  4  6  1  0  0  0  0
  4  7  1  0  0  0  0
  1  8  1  0  0  0  0
  1  9  1  0  0  0  0
  1 10  1  0  0  0  0
  2 11  1  0  0  0  0
  2 12  1  0  0  0  0
  3 13  1  0  0  0  0
  3 14  1  0  0  0  0
  5 15  1  0  0  0  0
  5 16  1  0  0  0  0
  5 17  1  0  0  0  0
  6 18  1  0  0  0  0
  6 19  1  0  0  0  0
  6 20  1  0  0  0  0
  7 21  1  0  0  0  0
M  END
