 xtb: 6.7.1 (edcfbbe)
          04112512013D

 22 22  0     0  0            999 V2000
    3.2579    1.1014    1.4077 C   0  0  0  0  0  0  0  0  0  0  0  0
    3.7699    0.8327   -0.0080 C   0  0  0  0  0  0  0  0  0  0  0  0
    3.4041   -0.5465   -0.4951 C   0  0  0  0  0  0  0  0  0  0  0  0
    4.2673   -1.3769   -0.7619 O   0  0  0  0  0  0  0  0  0  0  0  0
    2.1031   -0.9306   -0.6017 N   0  0  0  0  0  0  0  0  0  0  0  0
    0.8741   -0.2995   -0.4204 C   0  0  0  0  0  0  0  0  0  0  0  0
    0.6433    1.0596   -0.6291 C   0  0  0  0  0  0  0  0  0  0  0  0
   -0.6194    1.5922   -0.4502 C   0  0  0  0  0  0  0  0  0  0  0  0
   -1.6795    0.7849   -0.0710 C   0  0  0  0  0  0  0  0  0  0  0  0
   -1.4646   -0.5756    0.1174 C   0  0  0  0  0  0  0  0  0  0  0  0
   -0.2035   -1.1123   -0.0581 C   0  0  0  0  0  0  0  0  0  0  0  0
   -2.7781   -1.6128    0.5713 Cl  0  0  0  0  0  0  0  0  0  0  0  0
   -3.2598    1.4635    0.1505 Cl  0  0  0  0  0  0  0  0  0  0  0  0
    3.6434    0.3499    2.0924 H   0  0  0  0  0  0  0  0  0  0  0  0
    2.1728    1.0864    1.4501 H   0  0  0  0  0  0  0  0  0  0  0  0
    3.6052    2.0761    1.7381 H   0  0  0  0  0  0  0  0  0  0  0  0
    4.8607    0.8764   -0.0150 H   0  0  0  0  0  0  0  0  0  0  0  0
    3.4034    1.5869   -0.7021 H   0  0  0  0  0  0  0  0  0  0  0  0
    2.0273   -1.9259   -0.7912 H   0  0  0  0  0  0  0  0  0  0  0  0
    1.4340    1.7117   -0.9520 H   0  0  0  0  0  0  0  0  0  0  0  0
   -0.7909    2.6432   -0.6120 H   0  0  0  0  0  0  0  0  0  0  0  0
   -0.0610   -2.1700    0.0926 H   0  0  0  0  0  0  0  0  0  0  0  0
  1  2  1  0  0  0  0
  2  3  1  0  0  0  0
  3  4  2  0  0  0  0
  3  5  4  0  0  0  0
  5  6  1  0  0  0  0
  6  7  4  0  0  0  0
  7  8  4  0  0  0  0
  8  9  4  0  0  0  0
  9 10  4  0  0  0  0
  6 11  4  0  0  0  0
 10 11  4  0  0  0  0
 10 12  1  0  0  0  0
  9 13  1  0  0  0  0
  1 14  1  0  0  0  0
  1 15  1  0  0  0  0
  1 16  1  0  0  0  0
  2 17  1  0  0  0  0
  2 18  1  0  0  0  0
  5 19  1  0  0  0  0
  7 20  1  0  0  0  0
  8 21  1  0  0  0  0
 11 22  1  0  0  0  0
M  END
