 xtb: 6.7.1 (edcfbbe)
          04112512153D

 21 20  0     0  0            999 V2000
    2.1644   -0.3852    1.1961 C   0  0  0  0  0  0  0  0  0  0  0  0
    1.3194   -0.5078   -0.0663 C   0  0  0  0  0  0  0  0  0  0  0  0
    0.2790    0.6147   -0.2091 C   0  0  0  0  0  0  0  0  0  0  0  0
    0.5417    1.4215    0.4957 H   0  0  0  0  0  0  0  0  0  0  0  0
   -1.1770    0.1913    0.0845 C   0  0  0  0  0  0  0  0  0  0  0  0
   -1.6654   -0.8877   -0.8816 C   0  0  0  0  0  0  0  0  0  0  0  0
   -1.3534   -0.2499    1.5343 C   0  0  0  0  0  0  0  0  0  0  0  0
    0.3946    1.1192   -1.5335 O   0  0  0  0  0  0  0  0  0  0  0  0
    2.8906   -1.1933    1.2361 H   0  0  0  0  0  0  0  0  0  0  0  0
    1.5432   -0.4357    2.0864 H   0  0  0  0  0  0  0  0  0  0  0  0
    2.7025    0.5598    1.2047 H   0  0  0  0  0  0  0  0  0  0  0  0
    1.9672   -0.4476   -0.9431 H   0  0  0  0  0  0  0  0  0  0  0  0
    0.8305   -1.4803   -0.0883 H   0  0  0  0  0  0  0  0  0  0  0  0
   -1.7939    1.0858   -0.0740 H   0  0  0  0  0  0  0  0  0  0  0  0
   -1.3707   -0.6404   -1.8988 H   0  0  0  0  0  0  0  0  0  0  0  0
   -1.2465   -1.8584   -0.6295 H   0  0  0  0  0  0  0  0  0  0  0  0
   -2.7488   -0.9658   -0.8388 H   0  0  0  0  0  0  0  0  0  0  0  0
   -2.4030   -0.4518    1.7335 H   0  0  0  0  0  0  0  0  0  0  0  0
   -1.0161    0.5272    2.2164 H   0  0  0  0  0  0  0  0  0  0  0  0
   -0.7887   -1.1568    1.7324 H   0  0  0  0  0  0  0  0  0  0  0  0
   -0.2111    1.8640   -1.6457 H   0  0  0  0  0  0  0  0  0  0  0  0
  1  2  1  0  0  0  0
  2  3  1  0  0  0  0
  3  4  1  0  0  0  0
  3  5  1  0  0  0  0
  5  6  1  0  0  0  0
  5  7  1  0  0  0  0
  3  8  1  0  0  0  0
  1  9  1  0  0  0  0
  1 10  1  0  0  0  0
  1 11  1  0  0  0  0
  2 12  1  0  0  0  0
  2 13  1  0  0  0  0
  5 14  1  0  0  0  0
  6 15  1  0  0  0  0
  6 16  1  0  0  0  0
  6 17  1  0  0  0  0
  7 18  1  0  0  0  0
  7 19  1  0  0  0  0
  7 20  1  0  0  0  0
  8 21  1  0  0  0  0
M  END
