 xtb: 6.7.1 (edcfbbe)
          04112511513D

 19 19  0     0  0            999 V2000
    1.5815   -2.4384    0.9113 C   0  0  0  0  0  0  0  0  0  0  0  0
    1.0307   -1.7794   -0.2331 O   0  0  0  0  0  0  0  0  0  0  0  0
    0.6989   -0.4662   -0.0702 C   0  0  0  0  0  0  0  0  0  0  0  0
    1.6573    0.5482    0.0050 C   0  0  0  0  0  0  0  0  0  0  0  0
    1.2853    1.8792    0.1044 C   0  0  0  0  0  0  0  0  0  0  0  0
   -0.0514    2.2312    0.1036 C   0  0  0  0  0  0  0  0  0  0  0  0
   -1.0148    1.2426   -0.0094 C   0  0  0  0  0  0  0  0  0  0  0  0
   -0.6554   -0.1016   -0.0803 C   0  0  0  0  0  0  0  0  0  0  0  0
   -1.6941   -1.1687   -0.2135 C   0  0  0  0  0  0  0  0  0  0  0  0
   -2.5873   -1.1366   -1.0312 O   0  0  0  0  0  0  0  0  0  0  0  0
   -1.5430   -2.1422    0.6585 O   0  0  0  0  0  0  0  0  0  0  0  0
   -2.6853    1.6824   -0.0260 Cl  0  0  0  0  0  0  0  0  0  0  0  0
    3.3402    0.1522   -0.0815 Cl  0  0  0  0  0  0  0  0  0  0  0  0
    1.8351   -3.4367    0.5659 H   0  0  0  0  0  0  0  0  0  0  0  0
    0.8318   -2.4918    1.7034 H   0  0  0  0  0  0  0  0  0  0  0  0
    2.4747   -1.9313    1.2773 H   0  0  0  0  0  0  0  0  0  0  0  0
    2.0471    2.6387    0.1689 H   0  0  0  0  0  0  0  0  0  0  0  0
   -0.3487    3.2633    0.1771 H   0  0  0  0  0  0  0  0  0  0  0  0
   -2.2095   -2.8512    0.5534 H   0  0  0  0  0  0  0  0  0  0  0  0
  1  2  1  0  0  0  0
  2  3  1  0  0  0  0
  3  4  4  0  0  0  0
  4  5  4  0  0  0  0
  5  6  4  0  0  0  0
  6  7  4  0  0  0  0
  3  8  4  0  0  0  0
  7  8  4  0  0  0  0
  8  9  1  0  0  0  0
  9 10  2  0  0  0  0
  9 11  4  0  0  0  0
  7 12  1  0  0  0  0
  4 13  1  0  0  0  0
  1 14  1  0  0  0  0
  1 15  1  0  0  0  0
  1 16  1  0  0  0  0
  5 17  1  0  0  0  0
  6 18  1  0  0  0  0
 11 19  1  0  0  0  0
M  END
