 xtb: 6.7.1 (edcfbbe)
          04112511553D

 24 24  0     0  0            999 V2000
   -2.7414   -1.2539    0.0285 C   0  0  0  0  0  0  0  0  0  0  0  0
   -2.4782    0.2154    0.3365 C   0  0  0  0  0  0  0  0  0  0  0  0
   -1.2381    0.7933   -0.3503 C   0  0  0  0  0  0  0  0  0  0  0  0
    0.1056    0.3680    0.2455 C   0  0  0  0  0  0  0  0  0  0  0  0
    0.6558   -0.9796   -0.2253 C   0  0  0  0  0  0  0  0  0  0  0  0
    2.1285   -0.9217    0.1762 C   0  0  0  0  0  0  0  0  0  0  0  0
    2.5421    0.5429   -0.0392 C   0  0  0  0  0  0  0  0  0  0  0  0
    1.2301    1.3365   -0.1548 C   0  0  0  0  0  0  0  0  0  0  0  0
   -2.7588   -1.4199   -1.0462 H   0  0  0  0  0  0  0  0  0  0  0  0
   -1.9770   -1.8906    0.4629 H   0  0  0  0  0  0  0  0  0  0  0  0
   -3.7035   -1.5545    0.4376 H   0  0  0  0  0  0  0  0  0  0  0  0
   -3.3446    0.7948    0.0076 H   0  0  0  0  0  0  0  0  0  0  0  0
   -2.3867    0.3500    1.4167 H   0  0  0  0  0  0  0  0  0  0  0  0
   -1.2604    0.5369   -1.4122 H   0  0  0  0  0  0  0  0  0  0  0  0
   -1.2992    1.8826   -0.2755 H   0  0  0  0  0  0  0  0  0  0  0  0
    0.0219    0.3518    1.3374 H   0  0  0  0  0  0  0  0  0  0  0  0
    0.1518   -1.8326    0.2235 H   0  0  0  0  0  0  0  0  0  0  0  0
    0.5617   -1.0530   -1.3101 H   0  0  0  0  0  0  0  0  0  0  0  0
    2.2277   -1.1872    1.2299 H   0  0  0  0  0  0  0  0  0  0  0  0
    2.7406   -1.6122   -0.4024 H   0  0  0  0  0  0  0  0  0  0  0  0
    3.1494    0.8998    0.7920 H   0  0  0  0  0  0  0  0  0  0  0  0
    3.1341    0.6489   -0.9478 H   0  0  0  0  0  0  0  0  0  0  0  0
    1.2334    2.2290    0.4697 H   0  0  0  0  0  0  0  0  0  0  0  0
    1.0735    1.6528   -1.1874 H   0  0  0  0  0  0  0  0  0  0  0  0
  1  2  1  0  0  0  0
  2  3  1  0  0  0  0
  3  4  1  0  0  0  0
  4  5  1  0  0  0  0
  5  6  1  0  0  0  0
  6  7  1  0  0  0  0
  4  8  1  0  0  0  0
  7  8  1  0  0  0  0
  1  9  1  0  0  0  0
  1 10  1  0  0  0  0
  1 11  1  0  0  0  0
  2 12  1  0  0  0  0
  2 13  1  0  0  0  0
  3 14  1  0  0  0  0
  3 15  1  0  0  0  0
  4 16  1  0  0  0  0
  5 17  1  0  0  0  0
  5 18  1  0  0  0  0
  6 19  1  0  0  0  0
  6 20  1  0  0  0  0
  7 21  1  0  0  0  0
  7 22  1  0  0  0  0
  8 23  1  0  0  0  0
  8 24  1  0  0  0  0
M  END
