 xtb: 6.7.1 (edcfbbe)
          04112511573D

 14 13  0     0  0            999 V2000
    1.5348   -0.8741   -0.0566 C   0  0  0  0  0  0  0  0  0  0  0  0
    1.2509    0.5090   -0.1725 O   0  0  0  0  0  0  0  0  0  0  0  0
    0.0526    0.9089    0.4579 C   0  0  0  0  0  0  0  0  0  0  0  0
   -1.2224    0.4749   -0.2790 C   0  0  0  0  0  0  0  0  0  0  0  0
   -1.5789   -0.9072    0.0187 N   0  0  0  0  0  0  0  0  0  0  0  0
    1.6777   -1.1473    0.9948 H   0  0  0  0  0  0  0  0  0  0  0  0
    2.4579   -1.0357   -0.6077 H   0  0  0  0  0  0  0  0  0  0  0  0
    0.7284   -1.4768   -0.4781 H   0  0  0  0  0  0  0  0  0  0  0  0
    0.0295    0.5335    1.4912 H   0  0  0  0  0  0  0  0  0  0  0  0
    0.1033    1.9999    0.4748 H   0  0  0  0  0  0  0  0  0  0  0  0
   -2.0200    1.1884   -0.0133 H   0  0  0  0  0  0  0  0  0  0  0  0
   -1.0400    0.5534   -1.3540 H   0  0  0  0  0  0  0  0  0  0  0  0
   -2.4167   -1.1602   -0.4927 H   0  0  0  0  0  0  0  0  0  0  0  0
   -1.7833   -1.0013    1.0083 H   0  0  0  0  0  0  0  0  0  0  0  0
  1  2  1  0  0  0  0
  2  3  1  0  0  0  0
  3  4  1  0  0  0  0
  4  5  1  0  0  0  0
  1  6  1  0  0  0  0
  1  7  1  0  0  0  0
  1  8  1  0  0  0  0
  3  9  1  0  0  0  0
  3 10  1  0  0  0  0
  4 11  1  0  0  0  0
  4 12  1  0  0  0  0
  5 13  1  0  0  0  0
  5 14  1  0  0  0  0
M  END
