 xtb: 6.7.1 (edcfbbe)
          04112511193D

 14 13  0     0  0            999 V2000
   -1.3909    0.0090    0.6621 C   0  0  0  0  0  0  0  0  0  0  0  0
    0.1007    0.3278    0.4613 C   0  0  0  0  0  0  0  0  0  0  0  0
    0.8312   -0.8258   -0.2336 C   0  0  0  0  0  0  0  0  0  0  0  0
    2.1874   -0.7913    0.1538 O   0  0  0  0  0  0  0  0  0  0  0  0
    0.2427    1.4807   -0.3480 O   0  0  0  0  0  0  0  0  0  0  0  0
   -2.0381   -0.2749   -0.5553 O   0  0  0  0  0  0  0  0  0  0  0  0
   -1.8782    0.8600    1.1586 H   0  0  0  0  0  0  0  0  0  0  0  0
   -1.5066   -0.8757    1.2896 H   0  0  0  0  0  0  0  0  0  0  0  0
    0.5742    0.4759    1.4396 H   0  0  0  0  0  0  0  0  0  0  0  0
    0.7289   -0.6959   -1.3164 H   0  0  0  0  0  0  0  0  0  0  0  0
    0.3697   -1.7763    0.0606 H   0  0  0  0  0  0  0  0  0  0  0  0
    2.6794   -1.4559   -0.3471 H   0  0  0  0  0  0  0  0  0  0  0  0
    0.1084    2.2758    0.1846 H   0  0  0  0  0  0  0  0  0  0  0  0
   -1.8275    0.4390   -1.1767 H   0  0  0  0  0  0  0  0  0  0  0  0
  1  2  1  0  0  0  0
  2  3  1  0  0  0  0
  3  4  1  0  0  0  0
  2  5  1  0  0  0  0
  1  6  1  0  0  0  0
  1  7  1  0  0  0  0
  1  8  1  0  0  0  0
  2  9  1  0  0  0  0
  3 10  1  0  0  0  0
  3 11  1  0  0  0  0
  4 12  1  0  0  0  0
  5 13  1  0  0  0  0
  6 14  1  0  0  0  0
M  END
