 xtb: 6.7.1 (edcfbbe)
          04112511193D

 14 13  0     0  0            999 V2000
   -1.2201    0.2624   -0.4588 C   0  0  0  0  0  0  0  0  0  0  0  0
   -0.0490    0.4967    0.5028 C   0  0  0  0  0  0  0  0  0  0  0  0
    0.8946   -0.7176    0.5663 C   0  0  0  0  0  0  0  0  0  0  0  0
    1.7344   -0.8353   -0.5573 O   0  0  0  0  0  0  0  0  0  0  0  0
    0.6100    1.6683    0.0756 O   0  0  0  0  0  0  0  0  0  0  0  0
   -1.9807   -0.8263    0.0107 O   0  0  0  0  0  0  0  0  0  0  0  0
   -0.8302    0.0701   -1.4670 H   0  0  0  0  0  0  0  0  0  0  0  0
   -1.8121    1.1844   -0.4918 H   0  0  0  0  0  0  0  0  0  0  0  0
   -0.4693    0.6407    1.5116 H   0  0  0  0  0  0  0  0  0  0  0  0
    0.2839   -1.6163    0.7111 H   0  0  0  0  0  0  0  0  0  0  0  0
    1.5690   -0.6111    1.4193 H   0  0  0  0  0  0  0  0  0  0  0  0
    1.1994   -1.0015   -1.3447 H   0  0  0  0  0  0  0  0  0  0  0  0
    1.5210    1.6566    0.4019 H   0  0  0  0  0  0  0  0  0  0  0  0
   -2.7716   -0.9222   -0.5374 H   0  0  0  0  0  0  0  0  0  0  0  0
  1  2  1  0  0  0  0
  2  3  1  0  0  0  0
  3  4  1  0  0  0  0
  2  5  1  0  0  0  0
  1  6  1  0  0  0  0
  1  7  1  0  0  0  0
  1  8  1  0  0  0  0
  2  9  1  0  0  0  0
  3 10  1  0  0  0  0
  3 11  1  0  0  0  0
  4 12  1  0  0  0  0
  5 13  1  0  0  0  0
  6 14  1  0  0  0  0
M  END
