 xtb: 6.7.1 (edcfbbe)
          04112511193D

 14 13  0     0  0            999 V2000
   -1.0217   -0.3275   -0.4438 C   0  0  0  0  0  0  0  0  0  0  0  0
    0.1283    0.3801    0.2750 C   0  0  0  0  0  0  0  0  0  0  0  0
    1.4810   -0.0855   -0.2871 C   0  0  0  0  0  0  0  0  0  0  0  0
    1.6414   -1.4578   -0.0126 O   0  0  0  0  0  0  0  0  0  0  0  0
   -0.0302    1.7706    0.0971 O   0  0  0  0  0  0  0  0  0  0  0  0
   -2.1788   -0.2476    0.3585 O   0  0  0  0  0  0  0  0  0  0  0  0
   -0.7337   -1.3736   -0.6035 H   0  0  0  0  0  0  0  0  0  0  0  0
   -1.1778    0.1707   -1.4083 H   0  0  0  0  0  0  0  0  0  0  0  0
    0.0673    0.1072    1.3368 H   0  0  0  0  0  0  0  0  0  0  0  0
    2.2795    0.5003    0.1865 H   0  0  0  0  0  0  0  0  0  0  0  0
    1.4942    0.1079   -1.3676 H   0  0  0  0  0  0  0  0  0  0  0  0
    2.4896   -1.7576   -0.3690 H   0  0  0  0  0  0  0  0  0  0  0  0
    0.5084    2.2500    0.7411 H   0  0  0  0  0  0  0  0  0  0  0  0
   -2.9203   -0.6484   -0.1151 H   0  0  0  0  0  0  0  0  0  0  0  0
  1  2  1  0  0  0  0
  2  3  1  0  0  0  0
  3  4  1  0  0  0  0
  2  5  1  0  0  0  0
  1  6  1  0  0  0  0
  1  7  1  0  0  0  0
  1  8  1  0  0  0  0
  2  9  1  0  0  0  0
  3 10  1  0  0  0  0
  3 11  1  0  0  0  0
  4 12  1  0  0  0  0
  5 13  1  0  0  0  0
  6 14  1  0  0  0  0
M  END
