 xtb: 6.7.1 (edcfbbe)
          04112511203D

 21 20  0     0  0            999 V2000
   -3.0138    0.2725   -0.2057 C   0  0  0  0  0  0  0  0  0  0  0  0
   -1.5658    0.1982   -0.6788 C   0  0  0  0  0  0  0  0  0  0  0  0
   -0.6150    0.0171    0.5020 C   0  0  0  0  0  0  0  0  0  0  0  0
    0.8809   -0.0913    0.1464 C   0  0  0  0  0  0  0  0  0  0  0  0
    1.3832    1.1584   -0.5783 C   0  0  0  0  0  0  0  0  0  0  0  0
    1.1691   -1.3418   -0.6916 C   0  0  0  0  0  0  0  0  0  0  0  0
    1.6298   -0.1490    1.3631 O   0  0  0  0  0  0  0  0  0  0  0  0
   -3.1497    1.1088    0.4762 H   0  0  0  0  0  0  0  0  0  0  0  0
   -3.2943   -0.6411    0.3138 H   0  0  0  0  0  0  0  0  0  0  0  0
   -3.6841    0.4061   -1.0512 H   0  0  0  0  0  0  0  0  0  0  0  0
   -1.4598   -0.6381   -1.3709 H   0  0  0  0  0  0  0  0  0  0  0  0
   -1.3195    1.1153   -1.2147 H   0  0  0  0  0  0  0  0  0  0  0  0
   -0.7297    0.8618    1.1866 H   0  0  0  0  0  0  0  0  0  0  0  0
   -0.9032   -0.8871    1.0464 H   0  0  0  0  0  0  0  0  0  0  0  0
    1.1294    2.0459   -0.0049 H   0  0  0  0  0  0  0  0  0  0  0  0
    0.9502    1.2300   -1.5700 H   0  0  0  0  0  0  0  0  0  0  0  0
    2.4653    1.1062   -0.6651 H   0  0  0  0  0  0  0  0  0  0  0  0
    0.7430   -1.2431   -1.6847 H   0  0  0  0  0  0  0  0  0  0  0  0
    0.7513   -2.2271   -0.2167 H   0  0  0  0  0  0  0  0  0  0  0  0
    2.2447   -1.4712   -0.7871 H   0  0  0  0  0  0  0  0  0  0  0  0
    1.3763   -0.9428    1.8525 H   0  0  0  0  0  0  0  0  0  0  0  0
  1  2  1  0  0  0  0
  2  3  1  0  0  0  0
  3  4  1  0  0  0  0
  4  5  1  0  0  0  0
  4  6  1  0  0  0  0
  4  7  1  0  0  0  0
  1  8  1  0  0  0  0
  1  9  1  0  0  0  0
  1 10  1  0  0  0  0
  2 11  1  0  0  0  0
  2 12  1  0  0  0  0
  3 13  1  0  0  0  0
  3 14  1  0  0  0  0
  5 15  1  0  0  0  0
  5 16  1  0  0  0  0
  5 17  1  0  0  0  0
  6 18  1  0  0  0  0
  6 19  1  0  0  0  0
  6 20  1  0  0  0  0
  7 21  1  0  0  0  0
M  END
