 xtb: 6.7.1 (edcfbbe)
          04072508213D

 16 15  0     0  0            999 V2000
   -2.9475   -0.3628   -0.1395 C   0  0  0  0  0  0  0  0  0  0  0  0
   -1.7445    0.4979    0.2275 C   0  0  0  0  0  0  0  0  0  0  0  0
   -0.4283   -0.2078   -0.0890 C   0  0  0  0  0  0  0  0  0  0  0  0
    0.7794    0.6594    0.2829 C   0  0  0  0  0  0  0  0  0  0  0  0
    2.0256   -0.0142   -0.0185 C   0  0  0  0  0  0  0  0  0  0  0  0
    3.0409   -0.5931   -0.2769 C   0  0  0  0  0  0  0  0  0  0  0  0
   -2.9296   -1.2987    0.4147 H   0  0  0  0  0  0  0  0  0  0  0  0
   -2.9398   -0.5951   -1.2021 H   0  0  0  0  0  0  0  0  0  0  0  0
   -3.8741    0.1565    0.0925 H   0  0  0  0  0  0  0  0  0  0  0  0
   -1.7917    1.4400   -0.3239 H   0  0  0  0  0  0  0  0  0  0  0  0
   -1.7807    0.7349    1.2935 H   0  0  0  0  0  0  0  0  0  0  0  0
   -0.3768   -1.1506    0.4606 H   0  0  0  0  0  0  0  0  0  0  0  0
   -0.3866   -0.4442   -1.1549 H   0  0  0  0  0  0  0  0  0  0  0  0
    0.7527    0.8918    1.3511 H   0  0  0  0  0  0  0  0  0  0  0  0
    0.7435    1.6010   -0.2721 H   0  0  0  0  0  0  0  0  0  0  0  0
    3.9375   -1.0897   -0.4988 H   0  0  0  0  0  0  0  0  0  0  0  0
  1  2  1  0  0  0  0
  2  3  1  0  0  0  0
  3  4  1  0  0  0  0
  4  5  1  0  0  0  0
  5  6  3  0  0  0  0
  1  7  1  0  0  0  0
  1  8  1  0  0  0  0
  1  9  1  0  0  0  0
  2 10  1  0  0  0  0
  2 11  1  0  0  0  0
  3 12  1  0  0  0  0
  3 13  1  0  0  0  0
  4 14  1  0  0  0  0
  4 15  1  0  0  0  0
  6 16  1  0  0  0  0
M  END
