 xtb: 6.7.1 (edcfbbe)
          04112512203D

 18 17  0     0  0            999 V2000
   -1.4917    1.1694   -0.5194 C   0  0  0  0  0  0  0  0  0  0  0  0
   -1.2062    0.3794    0.7530 C   0  0  0  0  0  0  0  0  0  0  0  0
   -0.0809   -0.6593    0.6324 C   0  0  0  0  0  0  0  0  0  0  0  0
   -0.0818   -1.2352    1.5662 H   0  0  0  0  0  0  0  0  0  0  0  0
   -0.3005   -1.6234   -0.5312 C   0  0  0  0  0  0  0  0  0  0  0  0
    1.3135   -0.0220    0.5454 C   0  0  0  0  0  0  0  0  0  0  0  0
    1.5131    0.6274   -0.6940 O   0  0  0  0  0  0  0  0  0  0  0  0
   -1.9107    0.5261   -1.2881 H   0  0  0  0  0  0  0  0  0  0  0  0
   -2.2076    1.9612   -0.3099 H   0  0  0  0  0  0  0  0  0  0  0  0
   -0.5791    1.6147   -0.9036 H   0  0  0  0  0  0  0  0  0  0  0  0
   -2.1173   -0.1414    1.0578 H   0  0  0  0  0  0  0  0  0  0  0  0
   -0.9436    1.0754    1.5538 H   0  0  0  0  0  0  0  0  0  0  0  0
   -1.3084   -2.0286   -0.5018 H   0  0  0  0  0  0  0  0  0  0  0  0
    0.4078   -2.4468   -0.4747 H   0  0  0  0  0  0  0  0  0  0  0  0
   -0.1508   -1.1073   -1.4750 H   0  0  0  0  0  0  0  0  0  0  0  0
    2.0622   -0.8169    0.6720 H   0  0  0  0  0  0  0  0  0  0  0  0
    1.4308    0.6960    1.3699 H   0  0  0  0  0  0  0  0  0  0  0  0
    2.4221    0.9497   -0.7389 H   0  0  0  0  0  0  0  0  0  0  0  0
  1  2  1  0  0  0  0
  2  3  1  0  0  0  0
  3  4  1  0  0  0  0
  3  5  1  0  0  0  0
  3  6  1  0  0  0  0
  6  7  1  0  0  0  0
  1  8  1  0  0  0  0
  1  9  1  0  0  0  0
  1 10  1  0  0  0  0
  2 11  1  0  0  0  0
  2 12  1  0  0  0  0
  5 13  1  0  0  0  0
  5 14  1  0  0  0  0
  5 15  1  0  0  0  0
  6 16  1  0  0  0  0
  6 17  1  0  0  0  0
  7 18  1  0  0  0  0
M  END
