 xtb: 6.7.1 (edcfbbe)
          04112512213D

 19 18  0     0  0            999 V2000
    2.3958    0.9941   -0.0788 C   0  0  0  0  0  0  0  0  0  0  0  0
    1.1594    0.1788    0.2923 C   0  0  0  0  0  0  0  0  0  0  0  0
    1.4681   -1.3146    0.2447 C   0  0  0  0  0  0  0  0  0  0  0  0
   -0.0006    0.5261   -0.6656 C   0  0  0  0  0  0  0  0  0  0  0  0
   -1.2979   -0.0392   -0.1484 C   0  0  0  0  0  0  0  0  0  0  0  0
   -1.6958   -1.1465   -0.4587 O   0  0  0  0  0  0  0  0  0  0  0  0
   -2.0549    0.8531    0.7895 C   0  0  0  0  0  0  0  0  0  0  0  0
    2.1974    2.0594    0.0066 H   0  0  0  0  0  0  0  0  0  0  0  0
    3.2206    0.7434    0.5833 H   0  0  0  0  0  0  0  0  0  0  0  0
    2.6982    0.7788   -1.1008 H   0  0  0  0  0  0  0  0  0  0  0  0
    0.8606    0.4422    1.3127 H   0  0  0  0  0  0  0  0  0  0  0  0
    0.5711   -1.9017    0.4306 H   0  0  0  0  0  0  0  0  0  0  0  0
    2.2113   -1.5739    0.9946 H   0  0  0  0  0  0  0  0  0  0  0  0
    1.8550   -1.5894   -0.7341 H   0  0  0  0  0  0  0  0  0  0  0  0
    0.2157    0.0957   -1.6445 H   0  0  0  0  0  0  0  0  0  0  0  0
   -0.0821    1.6091   -0.7493 H   0  0  0  0  0  0  0  0  0  0  0  0
   -2.5149    1.6488    0.2063 H   0  0  0  0  0  0  0  0  0  0  0  0
   -2.8341    0.2955    1.3017 H   0  0  0  0  0  0  0  0  0  0  0  0
   -1.3791    1.3105    1.5061 H   0  0  0  0  0  0  0  0  0  0  0  0
  1  2  1  0  0  0  0
  2  3  1  0  0  0  0
  2  4  1  0  0  0  0
  4  5  1  0  0  0  0
  5  6  2  0  0  0  0
  5  7  1  0  0  0  0
  1  8  1  0  0  0  0
  1  9  1  0  0  0  0
  1 10  1  0  0  0  0
  2 11  1  0  0  0  0
  3 12  1  0  0  0  0
  3 13  1  0  0  0  0
  3 14  1  0  0  0  0
  4 15  1  0  0  0  0
  4 16  1  0  0  0  0
  7 17  1  0  0  0  0
  7 18  1  0  0  0  0
  7 19  1  0  0  0  0
M  END
