 xtb: 6.7.1 (edcfbbe)
          04112511443D

 15 14  0     0  0            999 V2000
   -2.2550   -0.7929    0.2200 C   0  0  0  0  0  0  0  0  0  0  0  0
   -1.4462    0.4641    0.4760 C   0  0  0  0  0  0  0  0  0  0  0  0
    0.0339    0.5799   -0.5924 S   0  0  0  0  0  0  0  0  0  0  0  0
    1.1155   -0.7107    0.1460 C   0  0  0  0  0  0  0  0  0  0  0  0
    2.5088   -0.1658    0.3948 C   0  0  0  0  0  0  0  0  0  0  0  0
   -2.5590   -0.8367   -0.8230 H   0  0  0  0  0  0  0  0  0  0  0  0
   -1.6725   -1.6830    0.4472 H   0  0  0  0  0  0  0  0  0  0  0  0
   -3.1441   -0.7904    0.8462 H   0  0  0  0  0  0  0  0  0  0  0  0
   -1.1070    0.5291    1.5097 H   0  0  0  0  0  0  0  0  0  0  0  0
   -2.0215    1.3562    0.2320 H   0  0  0  0  0  0  0  0  0  0  0  0
    0.6435   -1.0195    1.0764 H   0  0  0  0  0  0  0  0  0  0  0  0
    1.1396   -1.5498   -0.5489 H   0  0  0  0  0  0  0  0  0  0  0  0
    2.9574    0.1641   -0.5390 H   0  0  0  0  0  0  0  0  0  0  0  0
    2.4673    0.6827    1.0736 H   0  0  0  0  0  0  0  0  0  0  0  0
    3.1352   -0.9397    0.8325 H   0  0  0  0  0  0  0  0  0  0  0  0
  1  2  1  0  0  0  0
  2  3  1  0  0  0  0
  3  4  1  0  0  0  0
  4  5  1  0  0  0  0
  1  6  1  0  0  0  0
  1  7  1  0  0  0  0
  1  8  1  0  0  0  0
  2  9  1  0  0  0  0
  2 10  1  0  0  0  0
  4 11  1  0  0  0  0
  4 12  1  0  0  0  0
  5 13  1  0  0  0  0
  5 14  1  0  0  0  0
  5 15  1  0  0  0  0
M  END
