 xtb: 6.7.1 (edcfbbe)
          04112511103D

 18 17  0     0  0            999 V2000
    2.3105    0.4704    0.5125 C   0  0  0  0  0  0  0  0  0  0  0  0
    1.5758   -0.2255   -0.6307 C   0  0  0  0  0  0  0  0  0  0  0  0
    0.2723   -0.8950   -0.1747 C   0  0  0  0  0  0  0  0  0  0  0  0
   -0.9739   -0.0108   -0.3378 C   0  0  0  0  0  0  0  0  0  0  0  0
   -1.0952    0.2304   -1.4069 H   0  0  0  0  0  0  0  0  0  0  0  0
   -2.2223   -0.7432    0.1462 C   0  0  0  0  0  0  0  0  0  0  0  0
   -0.8902    1.1997    0.3992 O   0  0  0  0  0  0  0  0  0  0  0  0
    3.1649    1.0271    0.1343 H   0  0  0  0  0  0  0  0  0  0  0  0
    2.6726   -0.2667    1.2260 H   0  0  0  0  0  0  0  0  0  0  0  0
    1.6553    1.1554    1.0440 H   0  0  0  0  0  0  0  0  0  0  0  0
    1.3583    0.4910   -1.4270 H   0  0  0  0  0  0  0  0  0  0  0  0
    2.2375   -0.9830   -1.0551 H   0  0  0  0  0  0  0  0  0  0  0  0
    0.0982   -1.7990   -0.7596 H   0  0  0  0  0  0  0  0  0  0  0  0
    0.3609   -1.1843    0.8737 H   0  0  0  0  0  0  0  0  0  0  0  0
   -2.3643   -1.6596   -0.4177 H   0  0  0  0  0  0  0  0  0  0  0  0
   -2.1192   -0.9801    1.2017 H   0  0  0  0  0  0  0  0  0  0  0  0
   -3.0925   -0.1047    0.0210 H   0  0  0  0  0  0  0  0  0  0  0  0
   -0.2140    1.7628    0.0016 H   0  0  0  0  0  0  0  0  0  0  0  0
  1  2  1  0  0  0  0
  2  3  1  0  0  0  0
  3  4  1  0  0  0  0
  4  5  1  0  0  0  0
  4  6  1  0  0  0  0
  4  7  1  0  0  0  0
  1  8  1  0  0  0  0
  1  9  1  0  0  0  0
  1 10  1  0  0  0  0
  2 11  1  0  0  0  0
  2 12  1  0  0  0  0
  3 13  1  0  0  0  0
  3 14  1  0  0  0  0
  6 15  1  0  0  0  0
  6 16  1  0  0  0  0
  6 17  1  0  0  0  0
  7 18  1  0  0  0  0
M  END
