 xtb: 6.7.1 (edcfbbe)
          04112512243D

 23 22  0     0  0            999 V2000
    2.0323   -0.1656    1.1983 C   0  0  0  0  0  0  0  0  0  0  0  0
    1.4603    0.7636    0.1329 C   0  0  0  0  0  0  0  0  0  0  0  0
    0.2629    0.1955   -0.6476 C   0  0  0  0  0  0  0  0  0  0  0  0
   -0.0603    0.9835   -1.3399 H   0  0  0  0  0  0  0  0  0  0  0  0
    0.7040   -1.0097   -1.4827 C   0  0  0  0  0  0  0  0  0  0  0  0
   -0.9419   -0.1533    0.2481 C   0  0  0  0  0  0  0  0  0  0  0  0
   -1.3771    1.0373    1.1038 C   0  0  0  0  0  0  0  0  0  0  0  0
   -2.1334   -0.6181   -0.5917 C   0  0  0  0  0  0  0  0  0  0  0  0
    2.8960    0.3008    1.6676 H   0  0  0  0  0  0  0  0  0  0  0  0
    1.2992   -0.3739    1.9730 H   0  0  0  0  0  0  0  0  0  0  0  0
    2.3523   -1.1075    0.7616 H   0  0  0  0  0  0  0  0  0  0  0  0
    2.2489    0.9930   -0.5888 H   0  0  0  0  0  0  0  0  0  0  0  0
    1.1736    1.7075    0.5987 H   0  0  0  0  0  0  0  0  0  0  0  0
    1.6553   -0.8015   -1.9674 H   0  0  0  0  0  0  0  0  0  0  0  0
    0.8218   -1.8915   -0.8576 H   0  0  0  0  0  0  0  0  0  0  0  0
   -0.0221   -1.2346   -2.2584 H   0  0  0  0  0  0  0  0  0  0  0  0
   -0.6565   -0.9752    0.9129 H   0  0  0  0  0  0  0  0  0  0  0  0
   -0.6187    1.3052    1.8335 H   0  0  0  0  0  0  0  0  0  0  0  0
   -2.2888    0.7931    1.6449 H   0  0  0  0  0  0  0  0  0  0  0  0
   -1.5756    1.9026    0.4746 H   0  0  0  0  0  0  0  0  0  0  0  0
   -2.9975   -0.7852    0.0477 H   0  0  0  0  0  0  0  0  0  0  0  0
   -1.9168   -1.5475   -1.1095 H   0  0  0  0  0  0  0  0  0  0  0  0
   -2.3957    0.1386   -1.3286 H   0  0  0  0  0  0  0  0  0  0  0  0
  1  2  1  0  0  0  0
  2  3  1  0  0  0  0
  3  4  1  0  0  0  0
  3  5  1  0  0  0  0
  3  6  1  0  0  0  0
  6  7  1  0  0  0  0
  6  8  1  0  0  0  0
  1  9  1  0  0  0  0
  1 10  1  0  0  0  0
  1 11  1  0  0  0  0
  2 12  1  0  0  0  0
  2 13  1  0  0  0  0
  5 14  1  0  0  0  0
  5 15  1  0  0  0  0
  5 16  1  0  0  0  0
  6 17  1  0  0  0  0
  7 18  1  0  0  0  0
  7 19  1  0  0  0  0
  7 20  1  0  0  0  0
  8 21  1  0  0  0  0
  8 22  1  0  0  0  0
  8 23  1  0  0  0  0
M  END
