 xtb: 6.7.1 (edcfbbe)
          04112511103D

 18 17  0     0  0            999 V2000
    2.7148   -0.1927    0.1291 C   0  0  0  0  0  0  0  0  0  0  0  0
    1.2358   -0.1408    0.4921 C   0  0  0  0  0  0  0  0  0  0  0  0
    0.3547   -0.1933   -0.7543 C   0  0  0  0  0  0  0  0  0  0  0  0
   -1.1344    0.0350   -0.4663 C   0  0  0  0  0  0  0  0  0  0  0  0
   -1.6720   -0.0324   -1.4287 H   0  0  0  0  0  0  0  0  0  0  0  0
   -1.7199   -1.0020    0.4921 C   0  0  0  0  0  0  0  0  0  0  0  0
   -1.2753    1.3531    0.0414 O   0  0  0  0  0  0  0  0  0  0  0  0
    3.3278   -0.1626    1.0264 H   0  0  0  0  0  0  0  0  0  0  0  0
    2.9838    0.6531   -0.4996 H   0  0  0  0  0  0  0  0  0  0  0  0
    2.9411   -1.1083   -0.4129 H   0  0  0  0  0  0  0  0  0  0  0  0
    1.0000   -0.9807    1.1471 H   0  0  0  0  0  0  0  0  0  0  0  0
    1.0205    0.7840    1.0305 H   0  0  0  0  0  0  0  0  0  0  0  0
    0.6777    0.5892   -1.4444 H   0  0  0  0  0  0  0  0  0  0  0  0
    0.4696   -1.1565   -1.2539 H   0  0  0  0  0  0  0  0  0  0  0  0
   -2.8011   -0.8968    0.5500 H   0  0  0  0  0  0  0  0  0  0  0  0
   -1.4885   -2.0026    0.1398 H   0  0  0  0  0  0  0  0  0  0  0  0
   -1.3042   -0.8691    1.4871 H   0  0  0  0  0  0  0  0  0  0  0  0
   -2.1998    1.5037    0.2786 H   0  0  0  0  0  0  0  0  0  0  0  0
  1  2  1  0  0  0  0
  2  3  1  0  0  0  0
  3  4  1  0  0  0  0
  4  5  1  0  0  0  0
  4  6  1  0  0  0  0
  4  7  1  0  0  0  0
  1  8  1  0  0  0  0
  1  9  1  0  0  0  0
  1 10  1  0  0  0  0
  2 11  1  0  0  0  0
  2 12  1  0  0  0  0
  3 13  1  0  0  0  0
  3 14  1  0  0  0  0
  6 15  1  0  0  0  0
  6 16  1  0  0  0  0
  6 17  1  0  0  0  0
  7 18  1  0  0  0  0
M  END
