 xtb: 6.7.1 (edcfbbe)
          04112511573D

 14 13  0     0  0            999 V2000
    1.8767   -0.3202    0.5521 C   0  0  0  0  0  0  0  0  0  0  0  0
    1.0110   -0.1949   -0.5576 O   0  0  0  0  0  0  0  0  0  0  0  0
    0.0510    0.8422   -0.4447 C   0  0  0  0  0  0  0  0  0  0  0  0
   -1.1403    0.4666    0.4561 C   0  0  0  0  0  0  0  0  0  0  0  0
   -1.8642   -0.7146    0.0166 N   0  0  0  0  0  0  0  0  0  0  0  0
    2.3928    0.6258    0.7478 H   0  0  0  0  0  0  0  0  0  0  0  0
    2.6007   -1.0844    0.2798 H   0  0  0  0  0  0  0  0  0  0  0  0
    1.3405   -0.6305    1.4535 H   0  0  0  0  0  0  0  0  0  0  0  0
    0.5274    1.7604   -0.0764 H   0  0  0  0  0  0  0  0  0  0  0  0
   -0.2990    1.0075   -1.4679 H   0  0  0  0  0  0  0  0  0  0  0  0
   -0.7885    0.2805    1.4741 H   0  0  0  0  0  0  0  0  0  0  0  0
   -1.8329    1.3101    0.4839 H   0  0  0  0  0  0  0  0  0  0  0  0
   -1.2050   -1.4810   -0.0869 H   0  0  0  0  0  0  0  0  0  0  0  0
   -2.2609   -0.5448   -0.9022 H   0  0  0  0  0  0  0  0  0  0  0  0
  1  2  1  0  0  0  0
  2  3  1  0  0  0  0
  3  4  1  0  0  0  0
  4  5  1  0  0  0  0
  1  6  1  0  0  0  0
  1  7  1  0  0  0  0
  1  8  1  0  0  0  0
  3  9  1  0  0  0  0
  3 10  1  0  0  0  0
  4 11  1  0  0  0  0
  4 12  1  0  0  0  0
  5 13  1  0  0  0  0
  5 14  1  0  0  0  0
M  END
