 xtb: 6.7.1 (edcfbbe)
          04112511593D

 22 22  0     0  0            999 V2000
   -4.3506   -0.6835   -0.0095 C   0  0  0  0  0  0  0  0  0  0  0  0
   -3.4489    0.4112    0.0109 O   0  0  0  0  0  0  0  0  0  0  0  0
   -2.1203    0.1711    0.0048 C   0  0  0  0  0  0  0  0  0  0  0  0
   -1.5379   -1.0967   -0.0205 C   0  0  0  0  0  0  0  0  0  0  0  0
   -0.1639   -1.2177   -0.0250 C   0  0  0  0  0  0  0  0  0  0  0  0
    0.6562   -0.0912   -0.0039 C   0  0  0  0  0  0  0  0  0  0  0  0
    0.0704    1.1781    0.0215 C   0  0  0  0  0  0  0  0  0  0  0  0
   -1.2974    1.3050    0.0256 C   0  0  0  0  0  0  0  0  0  0  0  0
    2.1140   -0.2759   -0.0103 C   0  0  0  0  0  0  0  0  0  0  0  0
    2.6683   -1.3629   -0.0366 O   0  0  0  0  0  0  0  0  0  0  0  0
    2.7855    0.8775    0.0229 O   0  0  0  0  0  0  0  0  0  0  0  0
    4.2126    0.8273    0.0199 C   0  0  0  0  0  0  0  0  0  0  0  0
   -5.3414   -0.2354   -0.0004 H   0  0  0  0  0  0  0  0  0  0  0  0
   -4.2229   -1.3140    0.8731 H   0  0  0  0  0  0  0  0  0  0  0  0
   -4.2239   -1.2799   -0.9157 H   0  0  0  0  0  0  0  0  0  0  0  0
   -2.1448   -1.9867   -0.0368 H   0  0  0  0  0  0  0  0  0  0  0  0
    0.3017   -2.1915   -0.0447 H   0  0  0  0  0  0  0  0  0  0  0  0
    0.7005    2.0524    0.0374 H   0  0  0  0  0  0  0  0  0  0  0  0
   -1.7692    2.2740    0.0448 H   0  0  0  0  0  0  0  0  0  0  0  0
    4.5714    0.9046   -1.0068 H   0  0  0  0  0  0  0  0  0  0  0  0
    4.5542   -0.1125    0.4560 H   0  0  0  0  0  0  0  0  0  0  0  0
    4.5491    1.6775    0.6069 H   0  0  0  0  0  0  0  0  0  0  0  0
  1  2  1  0  0  0  0
  2  3  1  0  0  0  0
  3  4  4  0  0  0  0
  4  5  4  0  0  0  0
  5  6  4  0  0  0  0
  6  7  4  0  0  0  0
  3  8  4  0  0  0  0
  7  8  2  0  0  0  0
  6  9  1  0  0  0  0
  9 10  2  0  0  0  0
  9 11  1  0  0  0  0
 11 12  1  0  0  0  0
  1 13  1  0  0  0  0
  1 14  1  0  0  0  0
  1 15  1  0  0  0  0
  4 16  1  0  0  0  0
  5 17  1  0  0  0  0
  7 18  1  0  0  0  0
  8 19  1  0  0  0  0
 12 20  1  0  0  0  0
 12 21  1  0  0  0  0
 12 22  1  0  0  0  0
M  END
