 xtb: 6.7.1 (edcfbbe)
          04112512143D

 21 20  0     0  0            999 V2000
    2.5522   -0.1865    0.6811 C   0  0  0  0  0  0  0  0  0  0  0  0
    1.1306   -0.6494    0.3812 C   0  0  0  0  0  0  0  0  0  0  0  0
    0.2367    0.5265   -0.0291 C   0  0  0  0  0  0  0  0  0  0  0  0
    0.3752    1.3425    0.6910 H   0  0  0  0  0  0  0  0  0  0  0  0
   -1.2708    0.1870   -0.0765 C   0  0  0  0  0  0  0  0  0  0  0  0
   -1.5742   -1.0849   -0.8681 C   0  0  0  0  0  0  0  0  0  0  0  0
   -1.8622    0.0884    1.3279 C   0  0  0  0  0  0  0  0  0  0  0  0
    0.6678    1.0885   -1.2583 O   0  0  0  0  0  0  0  0  0  0  0  0
    2.9503    0.3704   -0.1641 H   0  0  0  0  0  0  0  0  0  0  0  0
    3.1987   -1.0384    0.8756 H   0  0  0  0  0  0  0  0  0  0  0  0
    2.5638    0.4646    1.5522 H   0  0  0  0  0  0  0  0  0  0  0  0
    1.1537   -1.3809   -0.4289 H   0  0  0  0  0  0  0  0  0  0  0  0
    0.7092   -1.1285    1.2645 H   0  0  0  0  0  0  0  0  0  0  0  0
   -1.7460    1.0328   -0.5887 H   0  0  0  0  0  0  0  0  0  0  0  0
   -1.1392   -1.0458   -1.8639 H   0  0  0  0  0  0  0  0  0  0  0  0
   -1.1927   -1.9618   -0.3517 H   0  0  0  0  0  0  0  0  0  0  0  0
   -2.6502   -1.1975   -0.9781 H   0  0  0  0  0  0  0  0  0  0  0  0
   -2.9380   -0.0555    1.2680 H   0  0  0  0  0  0  0  0  0  0  0  0
   -1.6676    0.9971    1.8923 H   0  0  0  0  0  0  0  0  0  0  0  0
   -1.4369   -0.7524    1.8700 H   0  0  0  0  0  0  0  0  0  0  0  0
    0.6058    0.4102   -1.9449 H   0  0  0  0  0  0  0  0  0  0  0  0
  1  2  1  0  0  0  0
  2  3  1  0  0  0  0
  3  4  1  0  0  0  0
  3  5  1  0  0  0  0
  5  6  1  0  0  0  0
  5  7  1  0  0  0  0
  3  8  1  0  0  0  0
  1  9  1  0  0  0  0
  1 10  1  0  0  0  0
  1 11  1  0  0  0  0
  2 12  1  0  0  0  0
  2 13  1  0  0  0  0
  5 14  1  0  0  0  0
  6 15  1  0  0  0  0
  6 16  1  0  0  0  0
  6 17  1  0  0  0  0
  7 18  1  0  0  0  0
  7 19  1  0  0  0  0
  7 20  1  0  0  0  0
  8 21  1  0  0  0  0
M  END
