 xtb: 6.7.1 (edcfbbe)
          04072505513D

 15 14  0     0  0            999 V2000
    1.8290   -0.9859    0.0021 C   0  0  0  0  0  0  0  0  0  0  0  0
    1.7922    0.5069   -0.3033 C   0  0  0  0  0  0  0  0  0  0  0  0
    0.5638    1.2232    0.2604 C   0  0  0  0  0  0  0  0  0  0  0  0
   -0.7490    0.8608   -0.4232 C   0  0  0  0  0  0  0  0  0  0  0  0
   -1.5200   -0.6934    0.1711 S   0  0  0  0  0  0  0  0  0  0  0  0
    2.7578   -1.4195   -0.3613 H   0  0  0  0  0  0  0  0  0  0  0  0
    1.0030   -1.5056   -0.4760 H   0  0  0  0  0  0  0  0  0  0  0  0
    1.7658   -1.1581    1.0743 H   0  0  0  0  0  0  0  0  0  0  0  0
    1.8284    0.6571   -1.3850 H   0  0  0  0  0  0  0  0  0  0  0  0
    2.6818    0.9752    0.1242 H   0  0  0  0  0  0  0  0  0  0  0  0
    0.7074    2.2990    0.1311 H   0  0  0  0  0  0  0  0  0  0  0  0
    0.4874    1.0255    1.3317 H   0  0  0  0  0  0  0  0  0  0  0  0
   -1.4930    1.6433   -0.2790 H   0  0  0  0  0  0  0  0  0  0  0  0
   -0.6056    0.7041   -1.4920 H   0  0  0  0  0  0  0  0  0  0  0  0
   -1.7217   -0.2886    1.4189 H   0  0  0  0  0  0  0  0  0  0  0  0
  1  2  1  0  0  0  0
  2  3  1  0  0  0  0
  3  4  1  0  0  0  0
  4  5  1  0  0  0  0
  1  6  1  0  0  0  0
  1  7  1  0  0  0  0
  1  8  1  0  0  0  0
  2  9  1  0  0  0  0
  2 10  1  0  0  0  0
  3 11  1  0  0  0  0
  3 12  1  0  0  0  0
  4 13  1  0  0  0  0
  4 14  1  0  0  0  0
  5 15  1  0  0  0  0
M  END
