 xtb: 6.7.1 (edcfbbe)
          04112511193D

 14 13  0     0  0            999 V2000
   -1.0349   -0.5244   -0.2737 C   0  0  0  0  0  0  0  0  0  0  0  0
    0.0019    0.2510    0.5510 C   0  0  0  0  0  0  0  0  0  0  0  0
    1.3117   -0.5442    0.6440 C   0  0  0  0  0  0  0  0  0  0  0  0
    1.7717   -0.7894   -0.6694 O   0  0  0  0  0  0  0  0  0  0  0  0
    0.2364    1.5380    0.0338 O   0  0  0  0  0  0  0  0  0  0  0  0
   -2.3006    0.0703   -0.0905 O   0  0  0  0  0  0  0  0  0  0  0  0
   -1.0470   -1.5663    0.0717 H   0  0  0  0  0  0  0  0  0  0  0  0
   -0.7364   -0.5027   -1.3286 H   0  0  0  0  0  0  0  0  0  0  0  0
   -0.4027    0.4120    1.5549 H   0  0  0  0  0  0  0  0  0  0  0  0
    1.1300   -1.4842    1.1778 H   0  0  0  0  0  0  0  0  0  0  0  0
    2.0386    0.0559    1.2043 H   0  0  0  0  0  0  0  0  0  0  0  0
    2.6221   -1.2471   -0.6317 H   0  0  0  0  0  0  0  0  0  0  0  0
    0.6603    1.4410   -0.8328 H   0  0  0  0  0  0  0  0  0  0  0  0
   -2.9432   -0.3653   -0.6669 H   0  0  0  0  0  0  0  0  0  0  0  0
  1  2  1  0  0  0  0
  2  3  1  0  0  0  0
  3  4  1  0  0  0  0
  2  5  1  0  0  0  0
  1  6  1  0  0  0  0
  1  7  1  0  0  0  0
  1  8  1  0  0  0  0
  2  9  1  0  0  0  0
  3 10  1  0  0  0  0
  3 11  1  0  0  0  0
  4 12  1  0  0  0  0
  5 13  1  0  0  0  0
  6 14  1  0  0  0  0
M  END
