 xtb: 6.7.1 (edcfbbe)
          04112511583D

 18 17  0     0  0            999 V2000
   -1.8205    1.1667    0.6586 C   0  0  0  0  0  0  0  0  0  0  0  0
   -1.4431    0.0339   -0.2879 C   0  0  0  0  0  0  0  0  0  0  0  0
   -0.0411   -0.5225   -0.0035 C   0  0  0  0  0  0  0  0  0  0  0  0
    1.0766    0.4617   -0.3892 C   0  0  0  0  0  0  0  0  0  0  0  0
    2.0349    0.7536    0.7588 C   0  0  0  0  0  0  0  0  0  0  0  0
    0.1930   -1.7179   -0.7368 O   0  0  0  0  0  0  0  0  0  0  0  0
   -1.1311    2.0013    0.5641 H   0  0  0  0  0  0  0  0  0  0  0  0
   -2.8227    1.5227    0.4351 H   0  0  0  0  0  0  0  0  0  0  0  0
   -1.7988    0.8204    1.6896 H   0  0  0  0  0  0  0  0  0  0  0  0
   -2.1696   -0.7755   -0.1781 H   0  0  0  0  0  0  0  0  0  0  0  0
   -1.4816    0.3753   -1.3243 H   0  0  0  0  0  0  0  0  0  0  0  0
    0.0305   -0.7486    1.0727 H   0  0  0  0  0  0  0  0  0  0  0  0
    1.6244    0.0101   -1.2183 H   0  0  0  0  0  0  0  0  0  0  0  0
    0.6424    1.3949   -0.7483 H   0  0  0  0  0  0  0  0  0  0  0  0
    2.8177    1.4327    0.4306 H   0  0  0  0  0  0  0  0  0  0  0  0
    1.5053    1.2129    1.5904 H   0  0  0  0  0  0  0  0  0  0  0  0
    2.5002   -0.1650    1.1082 H   0  0  0  0  0  0  0  0  0  0  0  0
   -0.4776   -2.3751   -0.5072 H   0  0  0  0  0  0  0  0  0  0  0  0
  1  2  1  0  0  0  0
  2  3  1  0  0  0  0
  3  4  1  0  0  0  0
  4  5  1  0  0  0  0
  3  6  1  0  0  0  0
  1  7  1  0  0  0  0
  1  8  1  0  0  0  0
  1  9  1  0  0  0  0
  2 10  1  0  0  0  0
  2 11  1  0  0  0  0
  3 12  1  0  0  0  0
  4 13  1  0  0  0  0
  4 14  1  0  0  0  0
  5 15  1  0  0  0  0
  5 16  1  0  0  0  0
  5 17  1  0  0  0  0
  6 18  1  0  0  0  0
M  END
