 xtb: 6.7.1 (edcfbbe)
          04112511223D

 15 14  0     0  0            999 V2000
    1.6098   -0.9529   -0.2583 C   0  0  0  0  0  0  0  0  0  0  0  0
    1.1415    0.2955    0.4812 C   0  0  0  0  0  0  0  0  0  0  0  0
    0.0428    1.0381   -0.2778 C   0  0  0  0  0  0  0  0  0  0  0  0
   -1.2921    0.3578   -0.3379 C   0  0  0  0  0  0  0  0  0  0  0  0
   -1.7088   -0.6588    0.3940 C   0  0  0  0  0  0  0  0  0  0  0  0
    2.3733   -1.4726    0.3157 H   0  0  0  0  0  0  0  0  0  0  0  0
    2.0314   -0.6835   -1.2245 H   0  0  0  0  0  0  0  0  0  0  0  0
    0.7797   -1.6336   -0.4279 H   0  0  0  0  0  0  0  0  0  0  0  0
    0.7851    0.0283    1.4770 H   0  0  0  0  0  0  0  0  0  0  0  0
    1.9907    0.9707    0.6092 H   0  0  0  0  0  0  0  0  0  0  0  0
    0.3799    1.2213   -1.3021 H   0  0  0  0  0  0  0  0  0  0  0  0
   -0.1114    2.0197    0.1831 H   0  0  0  0  0  0  0  0  0  0  0  0
   -1.9701    0.7970   -1.0606 H   0  0  0  0  0  0  0  0  0  0  0  0
   -2.7013   -1.0611    0.2800 H   0  0  0  0  0  0  0  0  0  0  0  0
   -1.0926   -1.1373    1.1353 H   0  0  0  0  0  0  0  0  0  0  0  0
  1  2  1  0  0  0  0
  2  3  1  0  0  0  0
  3  4  1  0  0  0  0
  4  5  2  0  0  0  0
  1  6  1  0  0  0  0
  1  7  1  0  0  0  0
  1  8  1  0  0  0  0
  2  9  1  0  0  0  0
  2 10  1  0  0  0  0
  3 11  1  0  0  0  0
  3 12  1  0  0  0  0
  4 13  1  0  0  0  0
  5 14  1  0  0  0  0
  5 15  1  0  0  0  0
M  END
