 xtb: 6.7.1 (edcfbbe)
          04112511193D

 14 13  0     0  0            999 V2000
   -1.0621   -0.1348    0.7215 C   0  0  0  0  0  0  0  0  0  0  0  0
    0.2283    0.6135    0.3432 C   0  0  0  0  0  0  0  0  0  0  0  0
    1.2007   -0.2983   -0.4357 C   0  0  0  0  0  0  0  0  0  0  0  0
    1.5833   -1.4388    0.2952 O   0  0  0  0  0  0  0  0  0  0  0  0
   -0.0674    1.7673   -0.4105 O   0  0  0  0  0  0  0  0  0  0  0  0
   -1.8471   -0.4160   -0.4172 O   0  0  0  0  0  0  0  0  0  0  0  0
   -1.6752    0.5095    1.3557 H   0  0  0  0  0  0  0  0  0  0  0  0
   -0.8080   -1.0464    1.2697 H   0  0  0  0  0  0  0  0  0  0  0  0
    0.7175    0.9614    1.2603 H   0  0  0  0  0  0  0  0  0  0  0  0
    2.0700    0.2978   -0.7376 H   0  0  0  0  0  0  0  0  0  0  0  0
    0.7155   -0.6678   -1.3426 H   0  0  0  0  0  0  0  0  0  0  0  0
    2.1575   -1.1762    1.0270 H   0  0  0  0  0  0  0  0  0  0  0  0
   -0.8059    1.5507   -1.0029 H   0  0  0  0  0  0  0  0  0  0  0  0
   -1.4859   -1.1893   -0.8706 H   0  0  0  0  0  0  0  0  0  0  0  0
  1  2  1  0  0  0  0
  2  3  1  0  0  0  0
  3  4  1  0  0  0  0
  2  5  1  0  0  0  0
  1  6  1  0  0  0  0
  1  7  1  0  0  0  0
  1  8  1  0  0  0  0
  2  9  1  0  0  0  0
  3 10  1  0  0  0  0
  3 11  1  0  0  0  0
  4 12  1  0  0  0  0
  5 13  1  0  0  0  0
  6 14  1  0  0  0  0
M  END
