 xtb: 6.7.1 (edcfbbe)
          04112511493D

 17 16  0     0  0            999 V2000
   -2.2271    0.6906   -0.8482 C   0  0  0  0  0  0  0  0  0  0  0  0
   -1.7830    0.5351    0.6012 C   0  0  0  0  0  0  0  0  0  0  0  0
   -0.8899   -0.6976    0.7937 C   0  0  0  0  0  0  0  0  0  0  0  0
    0.4060   -0.5527    0.0385 C   0  0  0  0  0  0  0  0  0  0  0  0
    0.7527   -1.2571   -0.8876 O   0  0  0  0  0  0  0  0  0  0  0  0
    1.1315    0.4524    0.5121 O   0  0  0  0  0  0  0  0  0  0  0  0
    2.3920    0.7509   -0.0939 C   0  0  0  0  0  0  0  0  0  0  0  0
   -2.8515    1.5728   -0.9615 H   0  0  0  0  0  0  0  0  0  0  0  0
   -1.3661    0.7899   -1.5068 H   0  0  0  0  0  0  0  0  0  0  0  0
   -2.7956   -0.1794   -1.1682 H   0  0  0  0  0  0  0  0  0  0  0  0
   -2.6602    0.4295    1.2403 H   0  0  0  0  0  0  0  0  0  0  0  0
   -1.2334    1.4223    0.9186 H   0  0  0  0  0  0  0  0  0  0  0  0
   -1.3937   -1.5948    0.4346 H   0  0  0  0  0  0  0  0  0  0  0  0
   -0.6512   -0.8093    1.8516 H   0  0  0  0  0  0  0  0  0  0  0  0
    2.5622    0.0872   -0.9423 H   0  0  0  0  0  0  0  0  0  0  0  0
    3.1656    0.6109    0.6590 H   0  0  0  0  0  0  0  0  0  0  0  0
    2.3641    1.7892   -0.4187 H   0  0  0  0  0  0  0  0  0  0  0  0
  1  2  1  0  0  0  0
  2  3  1  0  0  0  0
  3  4  1  0  0  0  0
  4  5  2  0  0  0  0
  4  6  1  0  0  0  0
  6  7  1  0  0  0  0
  1  8  1  0  0  0  0
  1  9  1  0  0  0  0
  1 10  1  0  0  0  0
  2 11  1  0  0  0  0
  2 12  1  0  0  0  0
  3 13  1  0  0  0  0
  3 14  1  0  0  0  0
  7 15  1  0  0  0  0
  7 16  1  0  0  0  0
  7 17  1  0  0  0  0
M  END
