 xtb: 6.7.1 (edcfbbe)
          04112512193D

 17 16  0     0  0            999 V2000
   -2.2544    0.4283   -1.0549 C   0  0  0  0  0  0  0  0  0  0  0  0
   -1.8352    0.3493    0.4163 C   0  0  0  0  0  0  0  0  0  0  0  0
   -0.4476   -0.2311    0.5024 C   0  0  0  0  0  0  0  0  0  0  0  0
   -0.1980   -1.4042    0.6887 O   0  0  0  0  0  0  0  0  0  0  0  0
    0.4797    0.7009    0.3260 O   0  0  0  0  0  0  0  0  0  0  0  0
    1.8600    0.3014    0.3046 C   0  0  0  0  0  0  0  0  0  0  0  0
    2.2882   -0.1125   -1.0950 C   0  0  0  0  0  0  0  0  0  0  0  0
   -2.2351   -0.5610   -1.5061 H   0  0  0  0  0  0  0  0  0  0  0  0
   -3.2619    0.8263   -1.1276 H   0  0  0  0  0  0  0  0  0  0  0  0
   -1.5783    1.0781   -1.6043 H   0  0  0  0  0  0  0  0  0  0  0  0
   -2.5161   -0.2993    0.9659 H   0  0  0  0  0  0  0  0  0  0  0  0
   -1.8279    1.3469    0.8530 H   0  0  0  0  0  0  0  0  0  0  0  0
    2.4070    1.1816    0.6437 H   0  0  0  0  0  0  0  0  0  0  0  0
    1.9943   -0.5252    1.0090 H   0  0  0  0  0  0  0  0  0  0  0  0
    3.3461   -0.3537   -1.0908 H   0  0  0  0  0  0  0  0  0  0  0  0
    1.7276   -0.9893   -1.4116 H   0  0  0  0  0  0  0  0  0  0  0  0
    2.1073    0.6968   -1.7972 H   0  0  0  0  0  0  0  0  0  0  0  0
  1  2  1  0  0  0  0
  2  3  1  0  0  0  0
  3  4  2  0  0  0  0
  3  5  1  0  0  0  0
  5  6  1  0  0  0  0
  6  7  1  0  0  0  0
  1  8  1  0  0  0  0
  1  9  1  0  0  0  0
  1 10  1  0  0  0  0
  2 11  1  0  0  0  0
  2 12  1  0  0  0  0
  6 13  1  0  0  0  0
  6 14  1  0  0  0  0
  7 15  1  0  0  0  0
  7 16  1  0  0  0  0
  7 17  1  0  0  0  0
M  END
