 xtb: 6.7.1 (edcfbbe)
          04072510353D

 16 15  0     0  0            999 V2000
    2.3469    0.3082    0.1214 C   0  0  0  0  0  0  0  0  0  0  0  0
    0.8828    0.7276    0.0840 C   0  0  0  0  0  0  0  0  0  0  0  0
   -0.0495   -0.4379   -0.1202 C   0  0  0  0  0  0  0  0  0  0  0  0
    0.3338   -1.5924   -0.0946 O   0  0  0  0  0  0  0  0  0  0  0  0
   -1.4975   -0.1063   -0.3949 C   0  0  0  0  0  0  0  0  0  0  0  0
   -2.0574    1.0864    0.3738 C   0  0  0  0  0  0  0  0  0  0  0  0
    2.9837    1.1682    0.3071 H   0  0  0  0  0  0  0  0  0  0  0  0
    2.5067   -0.4272    0.9063 H   0  0  0  0  0  0  0  0  0  0  0  0
    2.6343   -0.1468   -0.8235 H   0  0  0  0  0  0  0  0  0  0  0  0
    0.6079    1.2019    1.0287 H   0  0  0  0  0  0  0  0  0  0  0  0
    0.7096    1.4542   -0.7110 H   0  0  0  0  0  0  0  0  0  0  0  0
   -2.0873   -1.0029   -0.1930 H   0  0  0  0  0  0  0  0  0  0  0  0
   -1.5646    0.0895   -1.4692 H   0  0  0  0  0  0  0  0  0  0  0  0
   -1.5604    2.0096    0.0926 H   0  0  0  0  0  0  0  0  0  0  0  0
   -1.9454    0.9375    1.4448 H   0  0  0  0  0  0  0  0  0  0  0  0
   -3.1167    1.1903    0.1546 H   0  0  0  0  0  0  0  0  0  0  0  0
  1  2  1  0  0  0  0
  2  3  1  0  0  0  0
  3  4  2  0  0  0  0
  3  5  1  0  0  0  0
  5  6  1  0  0  0  0
  1  7  1  0  0  0  0
  1  8  1  0  0  0  0
  1  9  1  0  0  0  0
  2 10  1  0  0  0  0
  2 11  1  0  0  0  0
  5 12  1  0  0  0  0
  5 13  1  0  0  0  0
  6 14  1  0  0  0  0
  6 15  1  0  0  0  0
  6 16  1  0  0  0  0
M  END
