 xtb: 6.7.1 (edcfbbe)
          04112511553D

 24 24  0     0  0            999 V2000
   -2.6673   -1.2405    0.2244 C   0  0  0  0  0  0  0  0  0  0  0  0
   -2.4949    0.2698    0.1171 C   0  0  0  0  0  0  0  0  0  0  0  0
   -1.1876    0.7076   -0.5470 C   0  0  0  0  0  0  0  0  0  0  0  0
    0.0761    0.4135    0.2665 C   0  0  0  0  0  0  0  0  0  0  0  0
    0.6321   -1.0202    0.1102 C   0  0  0  0  0  0  0  0  0  0  0  0
    2.1220   -0.8777   -0.2363 C   0  0  0  0  0  0  0  0  0  0  0  0
    2.4866    0.5324    0.2194 C   0  0  0  0  0  0  0  0  0  0  0  0
    1.2402    1.3271   -0.1489 C   0  0  0  0  0  0  0  0  0  0  0  0
   -1.9178   -1.6724    0.8806 H   0  0  0  0  0  0  0  0  0  0  0  0
   -3.6498   -1.4762    0.6273 H   0  0  0  0  0  0  0  0  0  0  0  0
   -2.5800   -1.7051   -0.7552 H   0  0  0  0  0  0  0  0  0  0  0  0
   -3.3249    0.6750   -0.4672 H   0  0  0  0  0  0  0  0  0  0  0  0
   -2.5518    0.7105    1.1153 H   0  0  0  0  0  0  0  0  0  0  0  0
   -1.1042    0.2413   -1.5313 H   0  0  0  0  0  0  0  0  0  0  0  0
   -1.2433    1.7888   -0.7007 H   0  0  0  0  0  0  0  0  0  0  0  0
   -0.1460    0.5975    1.3224 H   0  0  0  0  0  0  0  0  0  0  0  0
    0.5139   -1.5774    1.0397 H   0  0  0  0  0  0  0  0  0  0  0  0
    0.1054   -1.5642   -0.6721 H   0  0  0  0  0  0  0  0  0  0  0  0
    2.7310   -1.6429    0.2429 H   0  0  0  0  0  0  0  0  0  0  0  0
    2.2655   -0.9573   -1.3149 H   0  0  0  0  0  0  0  0  0  0  0  0
    2.6365    0.5524    1.3001 H   0  0  0  0  0  0  0  0  0  0  0  0
    3.3871    0.9102   -0.2629 H   0  0  0  0  0  0  0  0  0  0  0  0
    1.1945    2.2985    0.3419 H   0  0  0  0  0  0  0  0  0  0  0  0
    1.2142    1.4854   -1.2289 H   0  0  0  0  0  0  0  0  0  0  0  0
  1  2  1  0  0  0  0
  2  3  1  0  0  0  0
  3  4  1  0  0  0  0
  4  5  1  0  0  0  0
  5  6  1  0  0  0  0
  6  7  1  0  0  0  0
  4  8  1  0  0  0  0
  7  8  1  0  0  0  0
  1  9  1  0  0  0  0
  1 10  1  0  0  0  0
  1 11  1  0  0  0  0
  2 12  1  0  0  0  0
  2 13  1  0  0  0  0
  3 14  1  0  0  0  0
  3 15  1  0  0  0  0
  4 16  1  0  0  0  0
  5 17  1  0  0  0  0
  5 18  1  0  0  0  0
  6 19  1  0  0  0  0
  6 20  1  0  0  0  0
  7 21  1  0  0  0  0
  7 22  1  0  0  0  0
  8 23  1  0  0  0  0
  8 24  1  0  0  0  0
M  END
