 xtb: 6.7.1 (edcfbbe)
          04112511553D

 24 24  0     0  0            999 V2000
   -3.3629   -0.3163   -0.5982 C   0  0  0  0  0  0  0  0  0  0  0  0
   -2.1393   -0.5269    0.2863 C   0  0  0  0  0  0  0  0  0  0  0  0
   -0.9893    0.3939   -0.1177 C   0  0  0  0  0  0  0  0  0  0  0  0
    0.2497    0.2398    0.7702 C   0  0  0  0  0  0  0  0  0  0  0  0
    1.0158   -1.0595    0.5040 C   0  0  0  0  0  0  0  0  0  0  0  0
    1.8761   -0.7421   -0.7165 C   0  0  0  0  0  0  0  0  0  0  0  0
    2.3081    0.7156   -0.5128 C   0  0  0  0  0  0  0  0  0  0  0  0
    1.2998    1.3263    0.4788 C   0  0  0  0  0  0  0  0  0  0  0  0
   -3.7101    0.7124   -0.5300 H   0  0  0  0  0  0  0  0  0  0  0  0
   -3.1217   -0.5273   -1.6377 H   0  0  0  0  0  0  0  0  0  0  0  0
   -4.1736   -0.9736   -0.2932 H   0  0  0  0  0  0  0  0  0  0  0  0
   -2.4061   -0.3321    1.3278 H   0  0  0  0  0  0  0  0  0  0  0  0
   -1.8246   -1.5697    0.2167 H   0  0  0  0  0  0  0  0  0  0  0  0
   -0.7224    0.2057   -1.1586 H   0  0  0  0  0  0  0  0  0  0  0  0
   -1.3391    1.4274   -0.0498 H   0  0  0  0  0  0  0  0  0  0  0  0
   -0.0764    0.2921    1.8134 H   0  0  0  0  0  0  0  0  0  0  0  0
    1.6562   -1.2830    1.3587 H   0  0  0  0  0  0  0  0  0  0  0  0
    0.3596   -1.9114    0.3378 H   0  0  0  0  0  0  0  0  0  0  0  0
    2.7282   -1.4147   -0.8040 H   0  0  0  0  0  0  0  0  0  0  0  0
    1.2812   -0.8384   -1.6252 H   0  0  0  0  0  0  0  0  0  0  0  0
    3.3155    0.7573   -0.0989 H   0  0  0  0  0  0  0  0  0  0  0  0
    2.3181    1.2580   -1.4572 H   0  0  0  0  0  0  0  0  0  0  0  0
    1.8070    1.6046    1.4028 H   0  0  0  0  0  0  0  0  0  0  0  0
    0.8348    2.2250    0.0756 H   0  0  0  0  0  0  0  0  0  0  0  0
  1  2  1  0  0  0  0
  2  3  1  0  0  0  0
  3  4  1  0  0  0  0
  4  5  1  0  0  0  0
  5  6  1  0  0  0  0
  6  7  1  0  0  0  0
  4  8  1  0  0  0  0
  7  8  1  0  0  0  0
  1  9  1  0  0  0  0
  1 10  1  0  0  0  0
  1 11  1  0  0  0  0
  2 12  1  0  0  0  0
  2 13  1  0  0  0  0
  3 14  1  0  0  0  0
  3 15  1  0  0  0  0
  4 16  1  0  0  0  0
  5 17  1  0  0  0  0
  5 18  1  0  0  0  0
  6 19  1  0  0  0  0
  6 20  1  0  0  0  0
  7 21  1  0  0  0  0
  7 22  1  0  0  0  0
  8 23  1  0  0  0  0
  8 24  1  0  0  0  0
M  END
