 xtb: 6.7.1 (edcfbbe)
          04112511143D

 17 16  0     0  0            999 V2000
    1.9317    0.7515    0.6538 C   0  0  0  0  0  0  0  0  0  0  0  0
    1.3494   -0.5290    0.0629 C   0  0  0  0  0  0  0  0  0  0  0  0
    1.2471   -0.4306   -1.4576 C   0  0  0  0  0  0  0  0  0  0  0  0
   -0.0261   -0.8519    0.6841 C   0  0  0  0  0  0  0  0  0  0  0  0
   -1.0884    0.1119    0.2313 C   0  0  0  0  0  0  0  0  0  0  0  0
   -1.1756    1.2747    0.5675 O   0  0  0  0  0  0  0  0  0  0  0  0
   -1.9528   -0.4476   -0.6021 O   0  0  0  0  0  0  0  0  0  0  0  0
    2.8752    0.9941    0.1717 H   0  0  0  0  0  0  0  0  0  0  0  0
    2.1080    0.6368    1.7205 H   0  0  0  0  0  0  0  0  0  0  0  0
    1.2449    1.5828    0.5102 H   0  0  0  0  0  0  0  0  0  0  0  0
    2.0131   -1.3628    0.3142 H   0  0  0  0  0  0  0  0  0  0  0  0
    2.2379   -0.3517   -1.8974 H   0  0  0  0  0  0  0  0  0  0  0  0
    0.7538   -1.3080   -1.8688 H   0  0  0  0  0  0  0  0  0  0  0  0
    0.6775    0.4520   -1.7429 H   0  0  0  0  0  0  0  0  0  0  0  0
    0.0526   -0.7892    1.7699 H   0  0  0  0  0  0  0  0  0  0  0  0
   -0.3370   -1.8545    0.3924 H   0  0  0  0  0  0  0  0  0  0  0  0
   -2.6478    0.1697   -0.9020 H   0  0  0  0  0  0  0  0  0  0  0  0
  1  2  1  0  0  0  0
  2  3  1  0  0  0  0
  2  4  1  0  0  0  0
  4  5  1  0  0  0  0
  5  6  2  0  0  0  0
  5  7  1  0  0  0  0
  1  8  1  0  0  0  0
  1  9  1  0  0  0  0
  1 10  1  0  0  0  0
  2 11  1  0  0  0  0
  3 12  1  0  0  0  0
  3 13  1  0  0  0  0
  3 14  1  0  0  0  0
  4 15  1  0  0  0  0
  4 16  1  0  0  0  0
  7 17  1  0  0  0  0
M  END
