 xtb: 6.7.1 (edcfbbe)
          04112511523D

 18 17  0     0  0            999 V2000
    2.0886   -1.0687   -0.4654 C   0  0  0  0  0  0  0  0  0  0  0  0
    0.8700   -0.4464    0.2153 C   0  0  0  0  0  0  0  0  0  0  0  0
    1.1943    0.9737    0.6719 C   0  0  0  0  0  0  0  0  0  0  0  0
   -0.3318   -0.4697   -0.7373 C   0  0  0  0  0  0  0  0  0  0  0  0
   -1.6832   -0.2656   -0.0531 C   0  0  0  0  0  0  0  0  0  0  0  0
   -1.8627    1.0925    0.3029 O   0  0  0  0  0  0  0  0  0  0  0  0
    2.9482   -1.0408    0.1998 H   0  0  0  0  0  0  0  0  0  0  0  0
    2.3367   -0.5180   -1.3702 H   0  0  0  0  0  0  0  0  0  0  0  0
    1.8953   -2.1046   -0.7344 H   0  0  0  0  0  0  0  0  0  0  0  0
    0.6210   -1.0492    1.0965 H   0  0  0  0  0  0  0  0  0  0  0  0
    0.3140    1.4482    1.0950 H   0  0  0  0  0  0  0  0  0  0  0  0
    1.5288    1.5713   -0.1735 H   0  0  0  0  0  0  0  0  0  0  0  0
    1.9830    0.9629    1.4207 H   0  0  0  0  0  0  0  0  0  0  0  0
   -0.3663   -1.4382   -1.2395 H   0  0  0  0  0  0  0  0  0  0  0  0
   -0.2100    0.3057   -1.4954 H   0  0  0  0  0  0  0  0  0  0  0  0
   -2.4784   -0.5707   -0.7475 H   0  0  0  0  0  0  0  0  0  0  0  0
   -1.7415   -0.9012    0.8416 H   0  0  0  0  0  0  0  0  0  0  0  0
   -2.7393    1.2077    0.6919 H   0  0  0  0  0  0  0  0  0  0  0  0
  1  2  1  0  0  0  0
  2  3  1  0  0  0  0
  2  4  1  0  0  0  0
  4  5  1  0  0  0  0
  5  6  1  0  0  0  0
  1  7  1  0  0  0  0
  1  8  1  0  0  0  0
  1  9  1  0  0  0  0
  2 10  1  0  0  0  0
  3 11  1  0  0  0  0
  3 12  1  0  0  0  0
  3 13  1  0  0  0  0
  4 14  1  0  0  0  0
  4 15  1  0  0  0  0
  5 16  1  0  0  0  0
  5 17  1  0  0  0  0
  6 18  1  0  0  0  0
M  END
