 xtb: 6.7.1 (edcfbbe)
          04072508213D

 16 15  0     0  0            999 V2000
   -2.1745   -0.5774   -0.5549 C   0  0  0  0  0  0  0  0  0  0  0  0
   -1.3199   -0.2684    0.6698 C   0  0  0  0  0  0  0  0  0  0  0  0
   -0.4959    1.0111    0.5217 C   0  0  0  0  0  0  0  0  0  0  0  0
    0.6147    0.8999   -0.5304 C   0  0  0  0  0  0  0  0  0  0  0  0
    1.5741   -0.1317   -0.1932 C   0  0  0  0  0  0  0  0  0  0  0  0
    2.3566   -0.9875    0.1039 C   0  0  0  0  0  0  0  0  0  0  0  0
   -2.8055   -1.4420   -0.3633 H   0  0  0  0  0  0  0  0  0  0  0  0
   -1.5541   -0.8011   -1.4190 H   0  0  0  0  0  0  0  0  0  0  0  0
   -2.8154    0.2682   -0.7961 H   0  0  0  0  0  0  0  0  0  0  0  0
   -1.9740   -0.1591    1.5380 H   0  0  0  0  0  0  0  0  0  0  0  0
   -0.6453   -1.1053    0.8645 H   0  0  0  0  0  0  0  0  0  0  0  0
   -1.1559    1.8369    0.2469 H   0  0  0  0  0  0  0  0  0  0  0  0
   -0.0409    1.2497    1.4860 H   0  0  0  0  0  0  0  0  0  0  0  0
    1.1421    1.8551   -0.6019 H   0  0  0  0  0  0  0  0  0  0  0  0
    0.1854    0.6770   -1.5098 H   0  0  0  0  0  0  0  0  0  0  0  0
    3.0483   -1.7346    0.3548 H   0  0  0  0  0  0  0  0  0  0  0  0
  1  2  1  0  0  0  0
  2  3  1  0  0  0  0
  3  4  1  0  0  0  0
  4  5  1  0  0  0  0
  5  6  3  0  0  0  0
  1  7  1  0  0  0  0
  1  8  1  0  0  0  0
  1  9  1  0  0  0  0
  2 10  1  0  0  0  0
  2 11  1  0  0  0  0
  3 12  1  0  0  0  0
  3 13  1  0  0  0  0
  4 14  1  0  0  0  0
  4 15  1  0  0  0  0
  6 16  1  0  0  0  0
M  END
