 xtb: 6.7.1 (edcfbbe)
          04112511493D

 12 11  0     0  0            999 V2000
   -2.7590    0.5652    1.0707 C   0  0  0  0  0  0  0  0  0  0  0  0
   -1.3593    0.8312    0.8067 O   0  0  0  0  0  0  0  0  0  0  0  0
   -0.7598    0.0593   -0.0830 C   0  0  0  0  0  0  0  0  0  0  0  0
    0.7072    0.4760   -0.2447 C   0  0  0  0  0  0  0  0  0  0  0  0
    1.4998    0.3440    1.3282 Cl  0  0  0  0  0  0  0  0  0  0  0  0
    1.5023   -0.5605   -1.4411 Cl  0  0  0  0  0  0  0  0  0  0  0  0
   -0.8530   -1.2750    0.2281 F   0  0  0  0  0  0  0  0  0  0  0  0
   -1.3761    0.1204   -1.3176 F   0  0  0  0  0  0  0  0  0  0  0  0
   -3.3389    0.6935    0.1572 H   0  0  0  0  0  0  0  0  0  0  0  0
   -3.0343    1.3049    1.8144 H   0  0  0  0  0  0  0  0  0  0  0  0
   -2.8795   -0.4446    1.4616 H   0  0  0  0  0  0  0  0  0  0  0  0
    0.7562    1.5139   -0.5809 H   0  0  0  0  0  0  0  0  0  0  0  0
  1  2  1  0  0  0  0
  2  3  1  0  0  0  0
  3  4  1  0  0  0  0
  4  5  1  0  0  0  0
  4  6  1  0  0  0  0
  3  7  1  0  0  0  0
  3  8  1  0  0  0  0
  1  9  1  0  0  0  0
  1 10  1  0  0  0  0
  1 11  1  0  0  0  0
  4 12  1  0  0  0  0
M  END
