 xtb: 6.7.1 (edcfbbe)
          04112511103D

 18 17  0     0  0            999 V2000
    2.8179   -0.1963    0.2007 C   0  0  0  0  0  0  0  0  0  0  0  0
    1.4855    0.2915   -0.3544 C   0  0  0  0  0  0  0  0  0  0  0  0
    0.3171   -0.5571    0.1428 C   0  0  0  0  0  0  0  0  0  0  0  0
   -1.0367   -0.0090   -0.3269 C   0  0  0  0  0  0  0  0  0  0  0  0
   -1.0188    0.1130   -1.4163 H   0  0  0  0  0  0  0  0  0  0  0  0
   -2.1758   -0.9519    0.0623 C   0  0  0  0  0  0  0  0  0  0  0  0
   -1.2657    1.3013    0.1623 O   0  0  0  0  0  0  0  0  0  0  0  0
    2.8213   -0.1461    1.2872 H   0  0  0  0  0  0  0  0  0  0  0  0
    3.6333    0.4174   -0.1739 H   0  0  0  0  0  0  0  0  0  0  0  0
    2.9984   -1.2272   -0.0956 H   0  0  0  0  0  0  0  0  0  0  0  0
    1.3196    1.3304   -0.0612 H   0  0  0  0  0  0  0  0  0  0  0  0
    1.5101    0.2599   -1.4459 H   0  0  0  0  0  0  0  0  0  0  0  0
    0.4251   -1.5798   -0.2213 H   0  0  0  0  0  0  0  0  0  0  0  0
    0.3285   -0.5857    1.2355 H   0  0  0  0  0  0  0  0  0  0  0  0
   -3.1300   -0.5159   -0.2231 H   0  0  0  0  0  0  0  0  0  0  0  0
   -2.0603   -1.9057   -0.4433 H   0  0  0  0  0  0  0  0  0  0  0  0
   -2.1746   -1.1230    1.1369 H   0  0  0  0  0  0  0  0  0  0  0  0
   -1.3400    1.2600    1.1264 H   0  0  0  0  0  0  0  0  0  0  0  0
  1  2  1  0  0  0  0
  2  3  1  0  0  0  0
  3  4  1  0  0  0  0
  4  5  1  0  0  0  0
  4  6  1  0  0  0  0
  4  7  1  0  0  0  0
  1  8  1  0  0  0  0
  1  9  1  0  0  0  0
  1 10  1  0  0  0  0
  2 11  1  0  0  0  0
  2 12  1  0  0  0  0
  3 13  1  0  0  0  0
  3 14  1  0  0  0  0
  6 15  1  0  0  0  0
  6 16  1  0  0  0  0
  6 17  1  0  0  0  0
  7 18  1  0  0  0  0
M  END
