 xtb: 6.7.1 (edcfbbe)
          04112511103D

 18 17  0     0  0            999 V2000
    1.8828   -0.3214    0.8894 C   0  0  0  0  0  0  0  0  0  0  0  0
    1.5285    0.2411   -0.4816 C   0  0  0  0  0  0  0  0  0  0  0  0
    0.2497   -0.3333   -1.0994 C   0  0  0  0  0  0  0  0  0  0  0  0
   -1.0691    0.0008   -0.3646 C   0  0  0  0  0  0  0  0  0  0  0  0
   -1.8791   -0.0168   -1.1146 H   0  0  0  0  0  0  0  0  0  0  0  0
   -1.4333   -1.0208    0.7106 C   0  0  0  0  0  0  0  0  0  0  0  0
   -1.0474    1.2803    0.2467 O   0  0  0  0  0  0  0  0  0  0  0  0
    1.8661   -1.4089    0.8769 H   0  0  0  0  0  0  0  0  0  0  0  0
    1.1842    0.0370    1.6404 H   0  0  0  0  0  0  0  0  0  0  0  0
    2.8804    0.0039    1.1767 H   0  0  0  0  0  0  0  0  0  0  0  0
    1.4392    1.3259   -0.4015 H   0  0  0  0  0  0  0  0  0  0  0  0
    2.3469    0.0281   -1.1738 H   0  0  0  0  0  0  0  0  0  0  0  0
    0.1798    0.0511   -2.1204 H   0  0  0  0  0  0  0  0  0  0  0  0
    0.3341   -1.4187   -1.1634 H   0  0  0  0  0  0  0  0  0  0  0  0
   -2.3705   -0.7275    1.1772 H   0  0  0  0  0  0  0  0  0  0  0  0
   -1.5519   -2.0021    0.2614 H   0  0  0  0  0  0  0  0  0  0  0  0
   -0.6690   -1.0664    1.4778 H   0  0  0  0  0  0  0  0  0  0  0  0
   -0.9413    1.9551   -0.4358 H   0  0  0  0  0  0  0  0  0  0  0  0
  1  2  1  0  0  0  0
  2  3  1  0  0  0  0
  3  4  1  0  0  0  0
  4  5  1  0  0  0  0
  4  6  1  0  0  0  0
  4  7  1  0  0  0  0
  1  8  1  0  0  0  0
  1  9  1  0  0  0  0
  1 10  1  0  0  0  0
  2 11  1  0  0  0  0
  2 12  1  0  0  0  0
  3 13  1  0  0  0  0
  3 14  1  0  0  0  0
  6 15  1  0  0  0  0
  6 16  1  0  0  0  0
  6 17  1  0  0  0  0
  7 18  1  0  0  0  0
M  END
