 xtb: 6.7.1 (edcfbbe)
          04112511103D

 18 17  0     0  0            999 V2000
    2.1316   -1.0142   -0.3711 C   0  0  0  0  0  0  0  0  0  0  0  0
    1.7467    0.3918    0.0747 C   0  0  0  0  0  0  0  0  0  0  0  0
    0.3589    0.4742    0.7092 C   0  0  0  0  0  0  0  0  0  0  0  0
   -0.8004    0.1859   -0.2582 C   0  0  0  0  0  0  0  0  0  0  0  0
   -0.4438    0.3118   -1.2938 H   0  0  0  0  0  0  0  0  0  0  0  0
   -1.3685   -1.2221   -0.0856 C   0  0  0  0  0  0  0  0  0  0  0  0
   -1.7999    1.1670   -0.0055 O   0  0  0  0  0  0  0  0  0  0  0  0
    2.0545   -1.7109    0.4604 H   0  0  0  0  0  0  0  0  0  0  0  0
    3.1573   -1.0243   -0.7323 H   0  0  0  0  0  0  0  0  0  0  0  0
    1.4863   -1.3578   -1.1753 H   0  0  0  0  0  0  0  0  0  0  0  0
    2.4750    0.7407    0.8097 H   0  0  0  0  0  0  0  0  0  0  0  0
    1.7916    1.0694   -0.7808 H   0  0  0  0  0  0  0  0  0  0  0  0
    0.3015   -0.2073    1.5592 H   0  0  0  0  0  0  0  0  0  0  0  0
    0.2049    1.4873    1.0870 H   0  0  0  0  0  0  0  0  0  0  0  0
   -2.1416   -1.4187   -0.8259 H   0  0  0  0  0  0  0  0  0  0  0  0
   -0.5830   -1.9615   -0.2001 H   0  0  0  0  0  0  0  0  0  0  0  0
   -1.8023   -1.3189    0.9073 H   0  0  0  0  0  0  0  0  0  0  0  0
   -2.5762    0.9790   -0.5499 H   0  0  0  0  0  0  0  0  0  0  0  0
  1  2  1  0  0  0  0
  2  3  1  0  0  0  0
  3  4  1  0  0  0  0
  4  5  1  0  0  0  0
  4  6  1  0  0  0  0
  4  7  1  0  0  0  0
  1  8  1  0  0  0  0
  1  9  1  0  0  0  0
  1 10  1  0  0  0  0
  2 11  1  0  0  0  0
  2 12  1  0  0  0  0
  3 13  1  0  0  0  0
  3 14  1  0  0  0  0
  6 15  1  0  0  0  0
  6 16  1  0  0  0  0
  6 17  1  0  0  0  0
  7 18  1  0  0  0  0
M  END
