 xtb: 6.7.1 (edcfbbe)
          04112512083D

 17 16  0     0  0            999 V2000
   -3.1511   -0.2094    0.1401 C   0  0  0  0  0  0  0  0  0  0  0  0
   -1.7208    0.0988    0.5633 C   0  0  0  0  0  0  0  0  0  0  0  0
   -0.8435    0.3975   -0.6495 C   0  0  0  0  0  0  0  0  0  0  0  0
    0.4763    0.7942   -0.2529 O   0  0  0  0  0  0  0  0  0  0  0  0
    1.3841   -0.1508   -0.0299 C   0  0  0  0  0  0  0  0  0  0  0  0
    1.1662   -1.3363   -0.1734 O   0  0  0  0  0  0  0  0  0  0  0  0
    2.6902    0.4348    0.4147 C   0  0  0  0  0  0  0  0  0  0  0  0
   -3.7595   -0.4261    1.0132 H   0  0  0  0  0  0  0  0  0  0  0  0
   -3.5843    0.6387   -0.3835 H   0  0  0  0  0  0  0  0  0  0  0  0
   -3.1741   -1.0726   -0.5201 H   0  0  0  0  0  0  0  0  0  0  0  0
   -1.2977   -0.7539    1.0993 H   0  0  0  0  0  0  0  0  0  0  0  0
   -1.7034    0.9632    1.2295 H   0  0  0  0  0  0  0  0  0  0  0  0
   -0.7692   -0.4852   -1.2927 H   0  0  0  0  0  0  0  0  0  0  0  0
   -1.2327    1.2447   -1.2157 H   0  0  0  0  0  0  0  0  0  0  0  0
    2.7202    1.4933    0.1807 H   0  0  0  0  0  0  0  0  0  0  0  0
    3.5074   -0.0978   -0.0623 H   0  0  0  0  0  0  0  0  0  0  0  0
    2.7793    0.2981    1.4904 H   0  0  0  0  0  0  0  0  0  0  0  0
  1  2  1  0  0  0  0
  2  3  1  0  0  0  0
  3  4  1  0  0  0  0
  4  5  1  0  0  0  0
  5  6  2  0  0  0  0
  5  7  1  0  0  0  0
  1  8  1  0  0  0  0
  1  9  1  0  0  0  0
  1 10  1  0  0  0  0
  2 11  1  0  0  0  0
  2 12  1  0  0  0  0
  3 13  1  0  0  0  0
  3 14  1  0  0  0  0
  7 15  1  0  0  0  0
  7 16  1  0  0  0  0
  7 17  1  0  0  0  0
M  END
