 xtb: 6.7.1 (edcfbbe)
          04112511233D

 26 25  0     0  0            999 V2000
   -1.4307   -0.3213   -1.7070 C   0  0  0  0  0  0  0  0  0  0  0  0
   -1.3215    0.1732   -0.2639 C   0  0  0  0  0  0  0  0  0  0  0  0
   -1.7257   -0.9523    0.6870 C   0  0  0  0  0  0  0  0  0  0  0  0
    0.0183    0.8840    0.0472 C   0  0  0  0  0  0  0  0  0  0  0  0
   -0.1245    1.6949    1.3414 C   0  0  0  0  0  0  0  0  0  0  0  0
    1.3527    0.0997    0.0771 C   0  0  0  0  0  0  0  0  0  0  0  0
    1.4489   -1.0320    1.0991 C   0  0  0  0  0  0  0  0  0  0  0  0
    1.7877   -0.4196   -1.2942 C   0  0  0  0  0  0  0  0  0  0  0  0
   -2.4704   -0.5459   -1.9380 H   0  0  0  0  0  0  0  0  0  0  0  0
   -1.0825    0.4348   -2.4064 H   0  0  0  0  0  0  0  0  0  0  0  0
   -0.8547   -1.2283   -1.8608 H   0  0  0  0  0  0  0  0  0  0  0  0
   -2.0736    0.9662   -0.1519 H   0  0  0  0  0  0  0  0  0  0  0  0
   -2.7798   -1.1823    0.5422 H   0  0  0  0  0  0  0  0  0  0  0  0
   -1.5837   -0.6691    1.7252 H   0  0  0  0  0  0  0  0  0  0  0  0
   -1.1607   -1.8580    0.4904 H   0  0  0  0  0  0  0  0  0  0  0  0
    0.1418    1.6175   -0.7617 H   0  0  0  0  0  0  0  0  0  0  0  0
   -0.2587    1.0508    2.2057 H   0  0  0  0  0  0  0  0  0  0  0  0
   -0.9837    2.3591    1.2798 H   0  0  0  0  0  0  0  0  0  0  0  0
    0.7622    2.3023    1.5086 H   0  0  0  0  0  0  0  0  0  0  0  0
    2.0955    0.8539    0.3711 H   0  0  0  0  0  0  0  0  0  0  0  0
    1.0679   -0.7286    2.0691 H   0  0  0  0  0  0  0  0  0  0  0  0
    0.9048   -1.9111    0.7685 H   0  0  0  0  0  0  0  0  0  0  0  0
    2.4926   -1.3162    1.2216 H   0  0  0  0  0  0  0  0  0  0  0  0
    1.6591    0.3421   -2.0592 H   0  0  0  0  0  0  0  0  0  0  0  0
    1.2229   -1.3007   -1.5826 H   0  0  0  0  0  0  0  0  0  0  0  0
    2.8398   -0.6964   -1.2625 H   0  0  0  0  0  0  0  0  0  0  0  0
  1  2  1  0  0  0  0
  2  3  1  0  0  0  0
  2  4  1  0  0  0  0
  4  5  1  0  0  0  0
  4  6  1  0  0  0  0
  6  7  1  0  0  0  0
  6  8  1  0  0  0  0
  1  9  1  0  0  0  0
  1 10  1  0  0  0  0
  1 11  1  0  0  0  0
  2 12  1  0  0  0  0
  3 13  1  0  0  0  0
  3 14  1  0  0  0  0
  3 15  1  0  0  0  0
  4 16  1  0  0  0  0
  5 17  1  0  0  0  0
  5 18  1  0  0  0  0
  5 19  1  0  0  0  0
  6 20  1  0  0  0  0
  7 21  1  0  0  0  0
  7 22  1  0  0  0  0
  7 23  1  0  0  0  0
  8 24  1  0  0  0  0
  8 25  1  0  0  0  0
  8 26  1  0  0  0  0
M  END
