 xtb: 6.7.1 (edcfbbe)
          04112512193D

 17 16  0     0  0            999 V2000
   -2.9701   -0.0022    0.1899 C   0  0  0  0  0  0  0  0  0  0  0  0
   -1.6453    0.7461    0.2425 C   0  0  0  0  0  0  0  0  0  0  0  0
   -0.4823   -0.1261   -0.1556 C   0  0  0  0  0  0  0  0  0  0  0  0
   -0.5658   -1.2534   -0.5956 O   0  0  0  0  0  0  0  0  0  0  0  0
    0.6728    0.5022    0.0339 O   0  0  0  0  0  0  0  0  0  0  0  0
    1.8931   -0.1851   -0.2929 C   0  0  0  0  0  0  0  0  0  0  0  0
    3.0053    0.3675    0.5789 C   0  0  0  0  0  0  0  0  0  0  0  0
   -3.7867    0.6639    0.4500 H   0  0  0  0  0  0  0  0  0  0  0  0
   -3.1382   -0.3986   -0.8081 H   0  0  0  0  0  0  0  0  0  0  0  0
   -2.9603   -0.8387    0.8838 H   0  0  0  0  0  0  0  0  0  0  0  0
   -1.4466    1.1316    1.2433 H   0  0  0  0  0  0  0  0  0  0  0  0
   -1.6564    1.5991   -0.4389 H   0  0  0  0  0  0  0  0  0  0  0  0
    1.7412   -1.2576   -0.1333 H   0  0  0  0  0  0  0  0  0  0  0  0
    2.0986   -0.0159   -1.3546 H   0  0  0  0  0  0  0  0  0  0  0  0
    3.9392   -0.1207    0.3207 H   0  0  0  0  0  0  0  0  0  0  0  0
    3.1024    1.4373    0.4199 H   0  0  0  0  0  0  0  0  0  0  0  0
    2.7855    0.1876    1.6274 H   0  0  0  0  0  0  0  0  0  0  0  0
  1  2  1  0  0  0  0
  2  3  1  0  0  0  0
  3  4  2  0  0  0  0
  3  5  1  0  0  0  0
  5  6  1  0  0  0  0
  6  7  1  0  0  0  0
  1  8  1  0  0  0  0
  1  9  1  0  0  0  0
  1 10  1  0  0  0  0
  2 11  1  0  0  0  0
  2 12  1  0  0  0  0
  6 13  1  0  0  0  0
  6 14  1  0  0  0  0
  7 15  1  0  0  0  0
  7 16  1  0  0  0  0
  7 17  1  0  0  0  0
M  END
