 xtb: 6.7.1 (edcfbbe)
          04112511493D

 17 16  0     0  0            999 V2000
   -3.0757    0.7862    0.0730 C   0  0  0  0  0  0  0  0  0  0  0  0
   -1.5708    0.7963   -0.1674 C   0  0  0  0  0  0  0  0  0  0  0  0
   -0.9471   -0.5468    0.2113 C   0  0  0  0  0  0  0  0  0  0  0  0
    0.5422   -0.6125    0.0026 C   0  0  0  0  0  0  0  0  0  0  0  0
    1.1513   -1.6336   -0.2486 O   0  0  0  0  0  0  0  0  0  0  0  0
    1.1382    0.5647    0.1423 O   0  0  0  0  0  0  0  0  0  0  0  0
    2.5590    0.6062   -0.0098 C   0  0  0  0  0  0  0  0  0  0  0  0
   -3.5085    1.7423   -0.2082 H   0  0  0  0  0  0  0  0  0  0  0  0
   -3.5516    0.0063   -0.5165 H   0  0  0  0  0  0  0  0  0  0  0  0
   -3.2934    0.6047    1.1225 H   0  0  0  0  0  0  0  0  0  0  0  0
   -1.1075    1.5878    0.4220 H   0  0  0  0  0  0  0  0  0  0  0  0
   -1.3690    1.0026   -1.2199 H   0  0  0  0  0  0  0  0  0  0  0  0
   -1.3966   -1.3642   -0.3550 H   0  0  0  0  0  0  0  0  0  0  0  0
   -1.1245   -0.7471    1.2716 H   0  0  0  0  0  0  0  0  0  0  0  0
    3.0331   -0.0315    0.7373 H   0  0  0  0  0  0  0  0  0  0  0  0
    2.8373    1.6459    0.1298 H   0  0  0  0  0  0  0  0  0  0  0  0
    2.8385    0.2544   -1.0035 H   0  0  0  0  0  0  0  0  0  0  0  0
  1  2  1  0  0  0  0
  2  3  1  0  0  0  0
  3  4  1  0  0  0  0
  4  5  2  0  0  0  0
  4  6  1  0  0  0  0
  6  7  1  0  0  0  0
  1  8  1  0  0  0  0
  1  9  1  0  0  0  0
  1 10  1  0  0  0  0
  2 11  1  0  0  0  0
  2 12  1  0  0  0  0
  3 13  1  0  0  0  0
  3 14  1  0  0  0  0
  7 15  1  0  0  0  0
  7 16  1  0  0  0  0
  7 17  1  0  0  0  0
M  END
