 xtb: 6.7.1 (edcfbbe)
          04112511523D

 13 12  0     0  0            999 V2000
    1.4782   -1.3622   -0.9494 C   0  0  0  0  0  0  0  0  0  0  0  0
    1.4482   -0.2744   -0.0128 O   0  0  0  0  0  0  0  0  0  0  0  0
    0.0732    0.4560    0.1037 S   0  0  0  0  0  0  0  0  0  0  0  0
   -0.4365    0.7830   -1.1973 O   0  0  0  0  0  0  0  0  0  0  0  0
    0.2766    1.5258    1.0282 O   0  0  0  0  0  0  0  0  0  0  0  0
   -0.8243   -0.6445    0.7743 O   0  0  0  0  0  0  0  0  0  0  0  0
   -2.0722   -1.0200    0.1699 C   0  0  0  0  0  0  0  0  0  0  0  0
    2.5283   -1.5528   -1.1561 H   0  0  0  0  0  0  0  0  0  0  0  0
    0.9487   -1.0588   -1.8518 H   0  0  0  0  0  0  0  0  0  0  0  0
    1.0046   -2.2336   -0.4986 H   0  0  0  0  0  0  0  0  0  0  0  0
   -2.0929   -2.1074    0.1233 H   0  0  0  0  0  0  0  0  0  0  0  0
   -2.1237   -0.5817   -0.8249 H   0  0  0  0  0  0  0  0  0  0  0  0
   -2.8825   -0.6448    0.7931 H   0  0  0  0  0  0  0  0  0  0  0  0
  1  2  1  0  0  0  0
  2  3  1  0  0  0  0
  3  4  2  0  0  0  0
  3  5  2  0  0  0  0
  3  6  1  0  0  0  0
  6  7  1  0  0  0  0
  1  8  1  0  0  0  0
  1  9  1  0  0  0  0
  1 10  1  0  0  0  0
  7 11  1  0  0  0  0
  7 12  1  0  0  0  0
  7 13  1  0  0  0  0
M  END
