 xtb: 6.7.1 (edcfbbe)
          04112511583D

 18 17  0     0  0            999 V2000
   -2.1491    1.0280    0.5440 C   0  0  0  0  0  0  0  0  0  0  0  0
   -1.4711    0.0207   -0.3766 C   0  0  0  0  0  0  0  0  0  0  0  0
   -0.0674   -0.3876    0.0958 C   0  0  0  0  0  0  0  0  0  0  0  0
    0.9689    0.7177   -0.1396 C   0  0  0  0  0  0  0  0  0  0  0  0
    2.3202    0.3661    0.4724 C   0  0  0  0  0  0  0  0  0  0  0  0
    0.3323   -1.6018   -0.5203 O   0  0  0  0  0  0  0  0  0  0  0  0
   -2.2054    0.6382    1.5575 H   0  0  0  0  0  0  0  0  0  0  0  0
   -1.6052    1.9684    0.5664 H   0  0  0  0  0  0  0  0  0  0  0  0
   -3.1590    1.2278    0.1953 H   0  0  0  0  0  0  0  0  0  0  0  0
   -2.0781   -0.8867   -0.4216 H   0  0  0  0  0  0  0  0  0  0  0  0
   -1.4039    0.4325   -1.3867 H   0  0  0  0  0  0  0  0  0  0  0  0
   -0.1031   -0.6305    1.1643 H   0  0  0  0  0  0  0  0  0  0  0  0
    1.0813    0.8694   -1.2162 H   0  0  0  0  0  0  0  0  0  0  0  0
    0.6016    1.6465    0.2957 H   0  0  0  0  0  0  0  0  0  0  0  0
    2.6551   -0.6033    0.1107 H   0  0  0  0  0  0  0  0  0  0  0  0
    3.0642    1.1143    0.2121 H   0  0  0  0  0  0  0  0  0  0  0  0
    2.2425    0.3151    1.5560 H   0  0  0  0  0  0  0  0  0  0  0  0
    0.3843   -1.4591   -1.4759 H   0  0  0  0  0  0  0  0  0  0  0  0
  1  2  1  0  0  0  0
  2  3  1  0  0  0  0
  3  4  1  0  0  0  0
  4  5  1  0  0  0  0
  3  6  1  0  0  0  0
  1  7  1  0  0  0  0
  1  8  1  0  0  0  0
  1  9  1  0  0  0  0
  2 10  1  0  0  0  0
  2 11  1  0  0  0  0
  3 12  1  0  0  0  0
  4 13  1  0  0  0  0
  4 14  1  0  0  0  0
  5 15  1  0  0  0  0
  5 16  1  0  0  0  0
  5 17  1  0  0  0  0
  6 18  1  0  0  0  0
M  END
