 xtb: 6.7.1 (edcfbbe)
          04112511493D

 21 20  0     0  0            999 V2000
    1.7163   -0.4582    1.2071 C   0  0  0  0  0  0  0  0  0  0  0  0
    1.1777    0.4748    0.1234 C   0  0  0  0  0  0  0  0  0  0  0  0
    0.8647    1.4210    0.5764 H   0  0  0  0  0  0  0  0  0  0  0  0
    0.0103   -0.1444   -0.6578 C   0  0  0  0  0  0  0  0  0  0  0  0
   -1.2495   -0.4495    0.1599 C   0  0  0  0  0  0  0  0  0  0  0  0
   -1.8617    0.8138    0.7605 C   0  0  0  0  0  0  0  0  0  0  0  0
   -2.2734   -1.1475   -0.7358 C   0  0  0  0  0  0  0  0  0  0  0  0
    2.2111    0.8603   -0.7720 O   0  0  0  0  0  0  0  0  0  0  0  0
    0.9879   -0.5759    2.0028 H   0  0  0  0  0  0  0  0  0  0  0  0
    1.9429   -1.4367    0.7885 H   0  0  0  0  0  0  0  0  0  0  0  0
    2.6256   -0.0370    1.6292 H   0  0  0  0  0  0  0  0  0  0  0  0
   -0.2492    0.5444   -1.4661 H   0  0  0  0  0  0  0  0  0  0  0  0
    0.3626   -1.0739   -1.1145 H   0  0  0  0  0  0  0  0  0  0  0  0
   -0.9873   -1.1331    0.9734 H   0  0  0  0  0  0  0  0  0  0  0  0
   -2.7968    0.5748    1.2615 H   0  0  0  0  0  0  0  0  0  0  0  0
   -2.0671    1.5425   -0.0206 H   0  0  0  0  0  0  0  0  0  0  0  0
   -1.1946    1.2673    1.4884 H   0  0  0  0  0  0  0  0  0  0  0  0
   -3.1654   -1.4005   -0.1680 H   0  0  0  0  0  0  0  0  0  0  0  0
   -2.5630   -0.4962   -1.5575 H   0  0  0  0  0  0  0  0  0  0  0  0
   -1.8613   -2.0636   -1.1522 H   0  0  0  0  0  0  0  0  0  0  0  0
    2.5594    0.0669   -1.2029 H   0  0  0  0  0  0  0  0  0  0  0  0
  1  2  1  0  0  0  0
  2  3  1  0  0  0  0
  2  4  1  0  0  0  0
  4  5  1  0  0  0  0
  5  6  1  0  0  0  0
  5  7  1  0  0  0  0
  2  8  1  0  0  0  0
  1  9  1  0  0  0  0
  1 10  1  0  0  0  0
  1 11  1  0  0  0  0
  4 12  1  0  0  0  0
  4 13  1  0  0  0  0
  5 14  1  0  0  0  0
  6 15  1  0  0  0  0
  6 16  1  0  0  0  0
  6 17  1  0  0  0  0
  7 18  1  0  0  0  0
  7 19  1  0  0  0  0
  7 20  1  0  0  0  0
  8 21  1  0  0  0  0
M  END
