 xtb: 6.7.1 (edcfbbe)
          04112512233D

 13 12  0     0  0            999 V2000
   -1.7150   -0.5878    0.5380 C   0  0  0  0  0  0  0  0  0  0  0  0
   -1.0796    0.0642   -0.6850 C   0  0  0  0  0  0  0  0  0  0  0  0
    0.0285    1.0404   -0.2940 C   0  0  0  0  0  0  0  0  0  0  0  0
    1.2746    0.3800    0.1905 C   0  0  0  0  0  0  0  0  0  0  0  0
    1.5019   -0.8055    0.1982 O   0  0  0  0  0  0  0  0  0  0  0  0
   -2.4983   -1.2778    0.2355 H   0  0  0  0  0  0  0  0  0  0  0  0
   -0.9682   -1.1446    1.0995 H   0  0  0  0  0  0  0  0  0  0  0  0
   -2.1517    0.1644    1.1912 H   0  0  0  0  0  0  0  0  0  0  0  0
   -1.8441    0.5973   -1.2515 H   0  0  0  0  0  0  0  0  0  0  0  0
   -0.6562   -0.7108   -1.3267 H   0  0  0  0  0  0  0  0  0  0  0  0
    0.3213    1.6560   -1.1493 H   0  0  0  0  0  0  0  0  0  0  0  0
   -0.3128    1.7271    0.4842 H   0  0  0  0  0  0  0  0  0  0  0  0
    2.0412    1.0901    0.5556 H   0  0  0  0  0  0  0  0  0  0  0  0
  1  2  1  0  0  0  0
  2  3  1  0  0  0  0
  3  4  1  0  0  0  0
  4  5  2  0  0  0  0
  1  6  1  0  0  0  0
  1  7  1  0  0  0  0
  1  8  1  0  0  0  0
  2  9  1  0  0  0  0
  2 10  1  0  0  0  0
  3 11  1  0  0  0  0
  3 12  1  0  0  0  0
  4 13  1  0  0  0  0
M  END
