 xtb: 6.7.1 (edcfbbe)
          04112511193D

 14 13  0     0  0            999 V2000
   -1.0856   -0.3778   -0.3994 C   0  0  0  0  0  0  0  0  0  0  0  0
    0.1172    0.3361    0.2314 C   0  0  0  0  0  0  0  0  0  0  0  0
    1.4450   -0.1419   -0.3948 C   0  0  0  0  0  0  0  0  0  0  0  0
    1.8869   -1.3834    0.0961 O   0  0  0  0  0  0  0  0  0  0  0  0
    0.0037    1.7371    0.1466 O   0  0  0  0  0  0  0  0  0  0  0  0
   -2.2327   -0.1170    0.3776 O   0  0  0  0  0  0  0  0  0  0  0  0
   -0.8852   -1.4566   -0.4294 H   0  0  0  0  0  0  0  0  0  0  0  0
   -1.2211   -0.0123   -1.4273 H   0  0  0  0  0  0  0  0  0  0  0  0
    0.1317    0.1169    1.3044 H   0  0  0  0  0  0  0  0  0  0  0  0
    2.2220    0.5754   -0.1201 H   0  0  0  0  0  0  0  0  0  0  0  0
    1.3560   -0.1652   -1.4895 H   0  0  0  0  0  0  0  0  0  0  0  0
    1.2765   -2.0835   -0.1723 H   0  0  0  0  0  0  0  0  0  0  0  0
   -0.1252    1.9972   -0.7773 H   0  0  0  0  0  0  0  0  0  0  0  0
   -3.0017   -0.5426   -0.0262 H   0  0  0  0  0  0  0  0  0  0  0  0
  1  2  1  0  0  0  0
  2  3  1  0  0  0  0
  3  4  1  0  0  0  0
  2  5  1  0  0  0  0
  1  6  1  0  0  0  0
  1  7  1  0  0  0  0
  1  8  1  0  0  0  0
  2  9  1  0  0  0  0
  3 10  1  0  0  0  0
  3 11  1  0  0  0  0
  4 12  1  0  0  0  0
  5 13  1  0  0  0  0
  6 14  1  0  0  0  0
M  END
