 xtb: 6.7.1 (edcfbbe)
          04112511523D

 18 17  0     0  0            999 V2000
    1.4786   -1.4516   -0.0426 C   0  0  0  0  0  0  0  0  0  0  0  0
    1.2061   -0.0266    0.4355 C   0  0  0  0  0  0  0  0  0  0  0  0
    1.7420    0.9868   -0.5747 C   0  0  0  0  0  0  0  0  0  0  0  0
   -0.2784    0.2042    0.7520 C   0  0  0  0  0  0  0  0  0  0  0  0
   -1.2271    0.0456   -0.4372 C   0  0  0  0  0  0  0  0  0  0  0  0
   -2.5838    0.1818   -0.0589 O   0  0  0  0  0  0  0  0  0  0  0  0
    2.5501   -1.6239   -0.1093 H   0  0  0  0  0  0  0  0  0  0  0  0
    1.0475   -1.6199   -1.0261 H   0  0  0  0  0  0  0  0  0  0  0  0
    1.0567   -2.1761    0.6497 H   0  0  0  0  0  0  0  0  0  0  0  0
    1.7477    0.1199    1.3777 H   0  0  0  0  0  0  0  0  0  0  0  0
    1.5224    2.0026   -0.2550 H   0  0  0  0  0  0  0  0  0  0  0  0
    1.3006    0.8265   -1.5549 H   0  0  0  0  0  0  0  0  0  0  0  0
    2.8203    0.8835   -0.6692 H   0  0  0  0  0  0  0  0  0  0  0  0
   -0.3940    1.2133    1.1571 H   0  0  0  0  0  0  0  0  0  0  0  0
   -0.5909   -0.5014    1.5258 H   0  0  0  0  0  0  0  0  0  0  0  0
   -0.9877    0.7729   -1.2230 H   0  0  0  0  0  0  0  0  0  0  0  0
   -1.1543   -0.9592   -0.8573 H   0  0  0  0  0  0  0  0  0  0  0  0
   -2.7140    1.0559    0.3343 H   0  0  0  0  0  0  0  0  0  0  0  0
  1  2  1  0  0  0  0
  2  3  1  0  0  0  0
  2  4  1  0  0  0  0
  4  5  1  0  0  0  0
  5  6  1  0  0  0  0
  1  7  1  0  0  0  0
  1  8  1  0  0  0  0
  1  9  1  0  0  0  0
  2 10  1  0  0  0  0
  3 11  1  0  0  0  0
  3 12  1  0  0  0  0
  3 13  1  0  0  0  0
  4 14  1  0  0  0  0
  4 15  1  0  0  0  0
  5 16  1  0  0  0  0
  5 17  1  0  0  0  0
  6 18  1  0  0  0  0
M  END
