 xtb: 6.7.1 (edcfbbe)
          04112511203D

 21 20  0     0  0            999 V2000
   -2.3983   -0.7489   -0.1093 C   0  0  0  0  0  0  0  0  0  0  0  0
   -1.7413    0.5572    0.3212 C   0  0  0  0  0  0  0  0  0  0  0  0
   -0.4422    0.9026   -0.4127 C   0  0  0  0  0  0  0  0  0  0  0  0
    0.7965    0.0502   -0.0540 C   0  0  0  0  0  0  0  0  0  0  0  0
    2.0599    0.8880   -0.3091 C   0  0  0  0  0  0  0  0  0  0  0  0
    0.8795   -1.2266   -0.9015 C   0  0  0  0  0  0  0  0  0  0  0  0
    0.7093   -0.2760    1.3288 O   0  0  0  0  0  0  0  0  0  0  0  0
   -2.4640   -0.8085   -1.1936 H   0  0  0  0  0  0  0  0  0  0  0  0
   -3.4046   -0.8084    0.2997 H   0  0  0  0  0  0  0  0  0  0  0  0
   -1.8395   -1.6044    0.2589 H   0  0  0  0  0  0  0  0  0  0  0  0
   -2.4418    1.3756    0.1378 H   0  0  0  0  0  0  0  0  0  0  0  0
   -1.5386    0.5240    1.3922 H   0  0  0  0  0  0  0  0  0  0  0  0
   -0.6029    0.8415   -1.4899 H   0  0  0  0  0  0  0  0  0  0  0  0
   -0.2070    1.9407   -0.1684 H   0  0  0  0  0  0  0  0  0  0  0  0
    2.9553    0.2913   -0.1468 H   0  0  0  0  0  0  0  0  0  0  0  0
    2.0825    1.7394    0.3674 H   0  0  0  0  0  0  0  0  0  0  0  0
    2.0664    1.2516   -1.3325 H   0  0  0  0  0  0  0  0  0  0  0  0
    0.8884   -0.9722   -1.9573 H   0  0  0  0  0  0  0  0  0  0  0  0
    0.0343   -1.8775   -0.7051 H   0  0  0  0  0  0  0  0  0  0  0  0
    1.7940   -1.7703   -0.6709 H   0  0  0  0  0  0  0  0  0  0  0  0
    1.4974   -0.7760    1.5787 H   0  0  0  0  0  0  0  0  0  0  0  0
  1  2  1  0  0  0  0
  2  3  1  0  0  0  0
  3  4  1  0  0  0  0
  4  5  1  0  0  0  0
  4  6  1  0  0  0  0
  4  7  1  0  0  0  0
  1  8  1  0  0  0  0
  1  9  1  0  0  0  0
  1 10  1  0  0  0  0
  2 11  1  0  0  0  0
  2 12  1  0  0  0  0
  3 13  1  0  0  0  0
  3 14  1  0  0  0  0
  5 15  1  0  0  0  0
  5 16  1  0  0  0  0
  5 17  1  0  0  0  0
  6 18  1  0  0  0  0
  6 19  1  0  0  0  0
  6 20  1  0  0  0  0
  7 21  1  0  0  0  0
M  END
