 xtb: 6.7.1 (edcfbbe)
          04112512153D

 21 20  0     0  0            999 V2000
    2.1288   -0.9134    0.1211 C   0  0  0  0  0  0  0  0  0  0  0  0
    1.1598   -0.0537    0.9296 C   0  0  0  0  0  0  0  0  0  0  0  0
    0.1751    0.7880    0.0868 C   0  0  0  0  0  0  0  0  0  0  0  0
   -0.0296    1.7151    0.6375 H   0  0  0  0  0  0  0  0  0  0  0  0
   -1.1958    0.1212   -0.1777 C   0  0  0  0  0  0  0  0  0  0  0  0
   -1.1014   -1.2887   -0.7578 C   0  0  0  0  0  0  0  0  0  0  0  0
   -2.0546    0.1117    1.0856 C   0  0  0  0  0  0  0  0  0  0  0  0
    0.7560    1.2467   -1.1212 O   0  0  0  0  0  0  0  0  0  0  0  0
    1.6099   -1.6377   -0.4997 H   0  0  0  0  0  0  0  0  0  0  0  0
    2.7797   -1.4562    0.8024 H   0  0  0  0  0  0  0  0  0  0  0  0
    2.7529   -0.2855   -0.5107 H   0  0  0  0  0  0  0  0  0  0  0  0
    0.5861   -0.6828    1.6094 H   0  0  0  0  0  0  0  0  0  0  0  0
    1.7523    0.6312    1.5393 H   0  0  0  0  0  0  0  0  0  0  0  0
   -1.6899    0.7629   -0.9182 H   0  0  0  0  0  0  0  0  0  0  0  0
   -0.6729   -1.9774   -0.0346 H   0  0  0  0  0  0  0  0  0  0  0  0
   -2.0984   -1.6430   -1.0105 H   0  0  0  0  0  0  0  0  0  0  0  0
   -0.5033   -1.3065   -1.6658 H   0  0  0  0  0  0  0  0  0  0  0  0
   -3.0458   -0.2721    0.8572 H   0  0  0  0  0  0  0  0  0  0  0  0
   -2.1590    1.1163    1.4881 H   0  0  0  0  0  0  0  0  0  0  0  0
   -1.6140   -0.5211    1.8519 H   0  0  0  0  0  0  0  0  0  0  0  0
    0.9152    0.4831   -1.6924 H   0  0  0  0  0  0  0  0  0  0  0  0
  1  2  1  0  0  0  0
  2  3  1  0  0  0  0
  3  4  1  0  0  0  0
  3  5  1  0  0  0  0
  5  6  1  0  0  0  0
  5  7  1  0  0  0  0
  3  8  1  0  0  0  0
  1  9  1  0  0  0  0
  1 10  1  0  0  0  0
  1 11  1  0  0  0  0
  2 12  1  0  0  0  0
  2 13  1  0  0  0  0
  5 14  1  0  0  0  0
  6 15  1  0  0  0  0
  6 16  1  0  0  0  0
  6 17  1  0  0  0  0
  7 18  1  0  0  0  0
  7 19  1  0  0  0  0
  7 20  1  0  0  0  0
  8 21  1  0  0  0  0
M  END
