 xtb: 6.7.1 (edcfbbe)
          04112512213D

 19 18  0     0  0            999 V2000
    2.4401    0.9433   -0.1485 C   0  0  0  0  0  0  0  0  0  0  0  0
    1.1731    0.2273    0.3131 C   0  0  0  0  0  0  0  0  0  0  0  0
    1.3988   -1.2821    0.3562 C   0  0  0  0  0  0  0  0  0  0  0  0
    0.0096    0.5650   -0.6343 C   0  0  0  0  0  0  0  0  0  0  0  0
   -1.3082   -0.0153   -0.1884 C   0  0  0  0  0  0  0  0  0  0  0  0
   -1.9370   -0.7906   -0.8845 O   0  0  0  0  0  0  0  0  0  0  0  0
   -1.8006    0.4199    1.1614 C   0  0  0  0  0  0  0  0  0  0  0  0
    2.2965    2.0208   -0.1478 H   0  0  0  0  0  0  0  0  0  0  0  0
    3.2681    0.7061    0.5145 H   0  0  0  0  0  0  0  0  0  0  0  0
    2.7075    0.6317   -1.1555 H   0  0  0  0  0  0  0  0  0  0  0  0
    0.9248    0.5784    1.3186 H   0  0  0  0  0  0  0  0  0  0  0  0
    2.1904   -1.5297    1.0590 H   0  0  0  0  0  0  0  0  0  0  0  0
    1.6849   -1.6491   -0.6272 H   0  0  0  0  0  0  0  0  0  0  0  0
    0.4923   -1.8037    0.6574 H   0  0  0  0  0  0  0  0  0  0  0  0
    0.2325    0.1887   -1.6350 H   0  0  0  0  0  0  0  0  0  0  0  0
   -0.1041    1.6494   -0.6874 H   0  0  0  0  0  0  0  0  0  0  0  0
   -2.8670    0.2290    1.2457 H   0  0  0  0  0  0  0  0  0  0  0  0
   -1.2883   -0.1665    1.9221 H   0  0  0  0  0  0  0  0  0  0  0  0
   -1.5852    1.4691    1.3350 H   0  0  0  0  0  0  0  0  0  0  0  0
  1  2  1  0  0  0  0
  2  3  1  0  0  0  0
  2  4  1  0  0  0  0
  4  5  1  0  0  0  0
  5  6  2  0  0  0  0
  5  7  1  0  0  0  0
  1  8  1  0  0  0  0
  1  9  1  0  0  0  0
  1 10  1  0  0  0  0
  2 11  1  0  0  0  0
  3 12  1  0  0  0  0
  3 13  1  0  0  0  0
  3 14  1  0  0  0  0
  4 15  1  0  0  0  0
  4 16  1  0  0  0  0
  7 17  1  0  0  0  0
  7 18  1  0  0  0  0
  7 19  1  0  0  0  0
M  END
