 xtb: 6.7.1 (edcfbbe)
          04112511493D

 12 11  0     0  0            999 V2000
   -1.9492    0.6957    1.7025 C   0  0  0  0  0  0  0  0  0  0  0  0
   -1.8115    0.7644    0.2668 O   0  0  0  0  0  0  0  0  0  0  0  0
   -0.8515    0.0529   -0.3304 C   0  0  0  0  0  0  0  0  0  0  0  0
    0.6094    0.4886   -0.0662 C   0  0  0  0  0  0  0  0  0  0  0  0
    1.1473   -0.0697    1.5216 Cl  0  0  0  0  0  0  0  0  0  0  0  0
    1.6719   -0.1943   -1.3229 Cl  0  0  0  0  0  0  0  0  0  0  0  0
   -0.9761   -1.2916   -0.0748 F   0  0  0  0  0  0  0  0  0  0  0  0
   -1.0906    0.1648   -1.6651 F   0  0  0  0  0  0  0  0  0  0  0  0
   -2.9265    1.1299    1.8903 H   0  0  0  0  0  0  0  0  0  0  0  0
   -1.1695    1.2793    2.1891 H   0  0  0  0  0  0  0  0  0  0  0  0
   -1.9218   -0.3395    2.0400 H   0  0  0  0  0  0  0  0  0  0  0  0
    0.6759    1.5782   -0.1091 H   0  0  0  0  0  0  0  0  0  0  0  0
  1  2  1  0  0  0  0
  2  3  1  0  0  0  0
  3  4  1  0  0  0  0
  4  5  1  0  0  0  0
  4  6  1  0  0  0  0
  3  7  1  0  0  0  0
  3  8  1  0  0  0  0
  1  9  1  0  0  0  0
  1 10  1  0  0  0  0
  1 11  1  0  0  0  0
  4 12  1  0  0  0  0
M  END
