 xtb: 6.7.1 (edcfbbe)
          04072505513D

 15 14  0     0  0            999 V2000
    3.0839   -0.4311    0.1711 C   0  0  0  0  0  0  0  0  0  0  0  0
    1.8896    0.3169   -0.4092 C   0  0  0  0  0  0  0  0  0  0  0  0
    0.5700   -0.2209    0.1426 C   0  0  0  0  0  0  0  0  0  0  0  0
   -0.6163    0.5196   -0.4508 C   0  0  0  0  0  0  0  0  0  0  0  0
   -2.2129   -0.0386    0.2515 S   0  0  0  0  0  0  0  0  0  0  0  0
    3.1068   -0.3301    1.2536 H   0  0  0  0  0  0  0  0  0  0  0  0
    4.0124   -0.0345   -0.2314 H   0  0  0  0  0  0  0  0  0  0  0  0
    3.0268   -1.4892   -0.0734 H   0  0  0  0  0  0  0  0  0  0  0  0
    1.8916    0.2188   -1.4970 H   0  0  0  0  0  0  0  0  0  0  0  0
    1.9740    1.3794   -0.1716 H   0  0  0  0  0  0  0  0  0  0  0  0
    0.5541   -0.1126    1.2294 H   0  0  0  0  0  0  0  0  0  0  0  0
    0.4879   -1.2856   -0.0882 H   0  0  0  0  0  0  0  0  0  0  0  0
   -0.5730    1.5830   -0.2154 H   0  0  0  0  0  0  0  0  0  0  0  0
   -0.6695    0.3973   -1.5321 H   0  0  0  0  0  0  0  0  0  0  0  0
   -2.1274   -1.2963   -0.1645 H   0  0  0  0  0  0  0  0  0  0  0  0
  1  2  1  0  0  0  0
  2  3  1  0  0  0  0
  3  4  1  0  0  0  0
  4  5  1  0  0  0  0
  1  6  1  0  0  0  0
  1  7  1  0  0  0  0
  1  8  1  0  0  0  0
  2  9  1  0  0  0  0
  2 10  1  0  0  0  0
  3 11  1  0  0  0  0
  3 12  1  0  0  0  0
  4 13  1  0  0  0  0
  4 14  1  0  0  0  0
  5 15  1  0  0  0  0
M  END
