 xtb: 6.7.1 (edcfbbe)
          04072507453D

 21 20  0     0  0            999 V2000
    2.1056   -1.1023   -0.0336 C   0  0  0  0  0  0  0  0  0  0  0  0
    1.2211    0.0978    0.3094 C   0  0  0  0  0  0  0  0  0  0  0  0
    1.9173    1.4121   -0.0478 C   0  0  0  0  0  0  0  0  0  0  0  0
   -0.0001    0.0034   -0.4154 O   0  0  0  0  0  0  0  0  0  0  0  0
   -1.2214   -0.0968    0.3085 C   0  0  0  0  0  0  0  0  0  0  0  0
   -2.1101    1.0997   -0.0361 C   0  0  0  0  0  0  0  0  0  0  0  0
   -1.9124   -1.4139   -0.0488 C   0  0  0  0  0  0  0  0  0  0  0  0
    1.6066   -2.0282    0.2411 H   0  0  0  0  0  0  0  0  0  0  0  0
    2.2971   -1.1168   -1.1031 H   0  0  0  0  0  0  0  0  0  0  0  0
    3.0489   -1.0354    0.5000 H   0  0  0  0  0  0  0  0  0  0  0  0
    1.0057    0.0880    1.3887 H   0  0  0  0  0  0  0  0  0  0  0  0
    1.2827    2.2558    0.2121 H   0  0  0  0  0  0  0  0  0  0  0  0
    2.1100    1.4412   -1.1167 H   0  0  0  0  0  0  0  0  0  0  0  0
    2.8569    1.4952    0.4899 H   0  0  0  0  0  0  0  0  0  0  0  0
   -1.0069   -0.0854    1.3880 H   0  0  0  0  0  0  0  0  0  0  0  0
   -3.0535    1.0298    0.4967 H   0  0  0  0  0  0  0  0  0  0  0  0
   -1.6144    2.0274    0.2384 H   0  0  0  0  0  0  0  0  0  0  0  0
   -2.3006    1.1129   -1.1056 H   0  0  0  0  0  0  0  0  0  0  0  0
   -2.1007   -1.4455   -1.1184 H   0  0  0  0  0  0  0  0  0  0  0  0
   -2.8542   -1.4980    0.4851 H   0  0  0  0  0  0  0  0  0  0  0  0
   -1.2772   -2.2556    0.2157 H   0  0  0  0  0  0  0  0  0  0  0  0
  1  2  1  0  0  0  0
  2  3  1  0  0  0  0
  2  4  1  0  0  0  0
  4  5  1  0  0  0  0
  5  6  1  0  0  0  0
  5  7  1  0  0  0  0
  1  8  1  0  0  0  0
  1  9  1  0  0  0  0
  1 10  1  0  0  0  0
  2 11  1  0  0  0  0
  3 12  1  0  0  0  0
  3 13  1  0  0  0  0
  3 14  1  0  0  0  0
  5 15  1  0  0  0  0
  6 16  1  0  0  0  0
  6 17  1  0  0  0  0
  6 18  1  0  0  0  0
  7 19  1  0  0  0  0
  7 20  1  0  0  0  0
  7 21  1  0  0  0  0
M  END
