 xtb: 6.7.1 (edcfbbe)
          04112512153D

 21 20  0     0  0            999 V2000
    2.1029    0.4518   -1.0387 C   0  0  0  0  0  0  0  0  0  0  0  0
    1.6428   -0.6056   -0.0415 C   0  0  0  0  0  0  0  0  0  0  0  0
    0.2915   -0.3282    0.6393 C   0  0  0  0  0  0  0  0  0  0  0  0
    0.2211   -1.0560    1.4679 H   0  0  0  0  0  0  0  0  0  0  0  0
   -0.9570   -0.5585   -0.2479 C   0  0  0  0  0  0  0  0  0  0  0  0
   -2.1988   -0.7160    0.6353 C   0  0  0  0  0  0  0  0  0  0  0  0
   -1.1933    0.5623   -1.2599 C   0  0  0  0  0  0  0  0  0  0  0  0
    0.3396    0.9775    1.1851 O   0  0  0  0  0  0  0  0  0  0  0  0
    3.1570    0.3072   -1.2628 H   0  0  0  0  0  0  0  0  0  0  0  0
    1.9705    1.4412   -0.6101 H   0  0  0  0  0  0  0  0  0  0  0  0
    1.5486    0.3939   -1.9695 H   0  0  0  0  0  0  0  0  0  0  0  0
    1.5927   -1.5843   -0.5208 H   0  0  0  0  0  0  0  0  0  0  0  0
    2.3860   -0.6603    0.7573 H   0  0  0  0  0  0  0  0  0  0  0  0
   -0.7977   -1.5017   -0.7802 H   0  0  0  0  0  0  0  0  0  0  0  0
   -2.4507    0.2254    1.1190 H   0  0  0  0  0  0  0  0  0  0  0  0
   -3.0499   -1.0187    0.0302 H   0  0  0  0  0  0  0  0  0  0  0  0
   -2.0401   -1.4727    1.4008 H   0  0  0  0  0  0  0  0  0  0  0  0
   -1.0260    1.5301   -0.7934 H   0  0  0  0  0  0  0  0  0  0  0  0
   -2.2170    0.5238   -1.6247 H   0  0  0  0  0  0  0  0  0  0  0  0
   -0.5295    0.4745   -2.1134 H   0  0  0  0  0  0  0  0  0  0  0  0
   -0.4394    1.1098    1.7400 H   0  0  0  0  0  0  0  0  0  0  0  0
  1  2  1  0  0  0  0
  2  3  1  0  0  0  0
  3  4  1  0  0  0  0
  3  5  1  0  0  0  0
  5  6  1  0  0  0  0
  5  7  1  0  0  0  0
  3  8  1  0  0  0  0
  1  9  1  0  0  0  0
  1 10  1  0  0  0  0
  1 11  1  0  0  0  0
  2 12  1  0  0  0  0
  2 13  1  0  0  0  0
  5 14  1  0  0  0  0
  6 15  1  0  0  0  0
  6 16  1  0  0  0  0
  6 17  1  0  0  0  0
  7 18  1  0  0  0  0
  7 19  1  0  0  0  0
  7 20  1  0  0  0  0
  8 21  1  0  0  0  0
M  END
