 xtb: 6.7.1 (edcfbbe)
          04112511193D

 14 13  0     0  0            999 V2000
   -1.0272   -0.4538   -0.3348 C   0  0  0  0  0  0  0  0  0  0  0  0
    0.1314    0.3488    0.2708 C   0  0  0  0  0  0  0  0  0  0  0  0
    1.4723   -0.0916   -0.3343 C   0  0  0  0  0  0  0  0  0  0  0  0
    1.8111   -1.4144   -0.0024 O   0  0  0  0  0  0  0  0  0  0  0  0
   -0.0184    1.7309    0.0281 O   0  0  0  0  0  0  0  0  0  0  0  0
   -2.2661   -0.1080    0.2438 O   0  0  0  0  0  0  0  0  0  0  0  0
   -0.8169   -1.5239   -0.2372 H   0  0  0  0  0  0  0  0  0  0  0  0
   -1.1133   -0.2078   -1.3960 H   0  0  0  0  0  0  0  0  0  0  0  0
    0.1563    0.1754    1.3616 H   0  0  0  0  0  0  0  0  0  0  0  0
    2.2448    0.6176   -0.0162 H   0  0  0  0  0  0  0  0  0  0  0  0
    1.4013   -0.0552   -1.4236 H   0  0  0  0  0  0  0  0  0  0  0  0
    2.0464   -1.4622    0.9351 H   0  0  0  0  0  0  0  0  0  0  0  0
   -0.9611    1.9480    0.0990 H   0  0  0  0  0  0  0  0  0  0  0  0
   -2.3128   -0.4579    1.1445 H   0  0  0  0  0  0  0  0  0  0  0  0
  1  2  1  0  0  0  0
  2  3  1  0  0  0  0
  3  4  1  0  0  0  0
  2  5  1  0  0  0  0
  1  6  1  0  0  0  0
  1  7  1  0  0  0  0
  1  8  1  0  0  0  0
  2  9  1  0  0  0  0
  3 10  1  0  0  0  0
  3 11  1  0  0  0  0
  4 12  1  0  0  0  0
  5 13  1  0  0  0  0
  6 14  1  0  0  0  0
M  END
