 xtb: 6.7.1 (edcfbbe)
          04112511203D

 21 20  0     0  0            999 V2000
   -2.9983    0.2452   -0.0544 C   0  0  0  0  0  0  0  0  0  0  0  0
   -1.6286   -0.4136    0.0565 C   0  0  0  0  0  0  0  0  0  0  0  0
   -0.5112    0.5673   -0.2931 C   0  0  0  0  0  0  0  0  0  0  0  0
    0.9040    0.0294   -0.0204 C   0  0  0  0  0  0  0  0  0  0  0  0
    1.9323    1.1054   -0.3967 C   0  0  0  0  0  0  0  0  0  0  0  0
    1.1877   -1.2501   -0.8164 C   0  0  0  0  0  0  0  0  0  0  0  0
    0.9704   -0.2352    1.3788 O   0  0  0  0  0  0  0  0  0  0  0  0
   -3.7834   -0.4671    0.1872 H   0  0  0  0  0  0  0  0  0  0  0  0
   -3.1635    0.6108   -1.0656 H   0  0  0  0  0  0  0  0  0  0  0  0
   -3.0745    1.0863    0.6310 H   0  0  0  0  0  0  0  0  0  0  0  0
   -1.4723   -0.7704    1.0760 H   0  0  0  0  0  0  0  0  0  0  0  0
   -1.5914   -1.2725   -0.6150 H   0  0  0  0  0  0  0  0  0  0  0  0
   -0.5836    0.8504   -1.3441 H   0  0  0  0  0  0  0  0  0  0  0  0
   -0.6401    1.4676    0.3120 H   0  0  0  0  0  0  0  0  0  0  0  0
    1.7613    2.0040    0.1913 H   0  0  0  0  0  0  0  0  0  0  0  0
    1.8475    1.3529   -1.4505 H   0  0  0  0  0  0  0  0  0  0  0  0
    2.9428    0.7512   -0.2035 H   0  0  0  0  0  0  0  0  0  0  0  0
    2.2346   -1.5304   -0.7189 H   0  0  0  0  0  0  0  0  0  0  0  0
    0.9678   -1.0929   -1.8681 H   0  0  0  0  0  0  0  0  0  0  0  0
    0.5760   -2.0672   -0.4441 H   0  0  0  0  0  0  0  0  0  0  0  0
    1.8518   -0.5693    1.5916 H   0  0  0  0  0  0  0  0  0  0  0  0
  1  2  1  0  0  0  0
  2  3  1  0  0  0  0
  3  4  1  0  0  0  0
  4  5  1  0  0  0  0
  4  6  1  0  0  0  0
  4  7  1  0  0  0  0
  1  8  1  0  0  0  0
  1  9  1  0  0  0  0
  1 10  1  0  0  0  0
  2 11  1  0  0  0  0
  2 12  1  0  0  0  0
  3 13  1  0  0  0  0
  3 14  1  0  0  0  0
  5 15  1  0  0  0  0
  5 16  1  0  0  0  0
  5 17  1  0  0  0  0
  6 18  1  0  0  0  0
  6 19  1  0  0  0  0
  6 20  1  0  0  0  0
  7 21  1  0  0  0  0
M  END
