 xtb: 6.7.1 (edcfbbe)
          04112512213D

 14 13  0     0  0            999 V2000
   -2.1404   -0.1090   -0.7428 C   0  0  0  0  0  0  0  0  0  0  0  0
   -1.5526   -0.1393    0.6633 C   0  0  0  0  0  0  0  0  0  0  0  0
   -0.2456    0.6467    0.7472 C   0  0  0  0  0  0  0  0  0  0  0  0
    0.8867   -0.0261    0.0195 C   0  0  0  0  0  0  0  0  0  0  0  0
    0.9601   -1.2092   -0.2338 O   0  0  0  0  0  0  0  0  0  0  0  0
    1.8459    0.8296   -0.3084 O   0  0  0  0  0  0  0  0  0  0  0  0
   -1.4512   -0.5679   -1.4485 H   0  0  0  0  0  0  0  0  0  0  0  0
   -2.3300    0.9146   -1.0574 H   0  0  0  0  0  0  0  0  0  0  0  0
   -3.0768   -0.6595   -0.7739 H   0  0  0  0  0  0  0  0  0  0  0  0
   -2.2674    0.2870    1.3675 H   0  0  0  0  0  0  0  0  0  0  0  0
   -1.3591   -1.1740    0.9520 H   0  0  0  0  0  0  0  0  0  0  0  0
   -0.3587    1.6540    0.3453 H   0  0  0  0  0  0  0  0  0  0  0  0
    0.0712    0.7382    1.7892 H   0  0  0  0  0  0  0  0  0  0  0  0
    2.5991    0.3985   -0.7565 H   0  0  0  0  0  0  0  0  0  0  0  0
  1  2  1  0  0  0  0
  2  3  1  0  0  0  0
  3  4  1  0  0  0  0
  4  5  2  0  0  0  0
  4  6  1  0  0  0  0
  1  7  1  0  0  0  0
  1  8  1  0  0  0  0
  1  9  1  0  0  0  0
  2 10  1  0  0  0  0
  2 11  1  0  0  0  0
  3 12  1  0  0  0  0
  3 13  1  0  0  0  0
  6 14  1  0  0  0  0
M  END
