 xtb: 6.7.1 (edcfbbe)
          04112511443D

 25 25  0     0  0            999 V2000
    3.4862   -0.2608   -0.9440 C   0  0  0  0  0  0  0  0  0  0  0  0
    2.5426   -0.0806    0.2061 C   0  0  0  0  0  0  0  0  0  0  0  0
    2.9449   -0.1719    1.4636 C   0  0  0  0  0  0  0  0  0  0  0  0
    1.1049    0.1663   -0.1942 C   0  0  0  0  0  0  0  0  0  0  0  0
    1.1052    0.5765   -1.2090 H   0  0  0  0  0  0  0  0  0  0  0  0
    0.3144   -1.1611   -0.2113 C   0  0  0  0  0  0  0  0  0  0  0  0
   -1.1211   -1.0238    0.3260 C   0  0  0  0  0  0  0  0  0  0  0  0
   -1.7192    0.3048   -0.0214 C   0  0  0  0  0  0  0  0  0  0  0  0
   -0.9733    1.4028    0.1941 C   0  0  0  0  0  0  0  0  0  0  0  0
    0.4080    1.2164    0.6974 C   0  0  0  0  0  0  0  0  0  0  0  0
   -3.0588    0.3848   -0.5597 C   0  0  0  0  0  0  0  0  0  0  0  0
   -3.7909   -0.5610   -0.7941 O   0  0  0  0  0  0  0  0  0  0  0  0
    3.5366    0.6529   -1.5350 H   0  0  0  0  0  0  0  0  0  0  0  0
    4.4854   -0.5075   -0.5968 H   0  0  0  0  0  0  0  0  0  0  0  0
    3.1319   -1.0584   -1.5953 H   0  0  0  0  0  0  0  0  0  0  0  0
    2.2789   -0.0549    2.3000 H   0  0  0  0  0  0  0  0  0  0  0  0
    3.9733   -0.3743    1.7098 H   0  0  0  0  0  0  0  0  0  0  0  0
    0.2742   -1.5359   -1.2345 H   0  0  0  0  0  0  0  0  0  0  0  0
    0.8365   -1.9056    0.3912 H   0  0  0  0  0  0  0  0  0  0  0  0
   -1.7527   -1.8242   -0.0610 H   0  0  0  0  0  0  0  0  0  0  0  0
   -1.1008   -1.1114    1.4156 H   0  0  0  0  0  0  0  0  0  0  0  0
   -1.3414    2.3924   -0.0298 H   0  0  0  0  0  0  0  0  0  0  0  0
    0.9747    2.1457    0.6936 H   0  0  0  0  0  0  0  0  0  0  0  0
    0.3673    0.8369    1.7206 H   0  0  0  0  0  0  0  0  0  0  0  0
   -3.4096    1.4144   -0.7634 H   0  0  0  0  0  0  0  0  0  0  0  0
  1  2  1  0  0  0  0
  2  3  2  0  0  0  0
  2  4  1  0  0  0  0
  4  5  1  0  0  0  0
  4  6  1  0  0  0  0
  6  7  1  0  0  0  0
  7  8  1  0  0  0  0
  8  9  2  0  0  0  0
  4 10  1  0  0  0  0
  9 10  1  0  0  0  0
  8 11  1  0  0  0  0
 11 12  2  0  0  0  0
  1 13  1  0  0  0  0
  1 14  1  0  0  0  0
  1 15  1  0  0  0  0
  3 16  1  0  0  0  0
  3 17  1  0  0  0  0
  6 18  1  0  0  0  0
  6 19  1  0  0  0  0
  7 20  1  0  0  0  0
  7 21  1  0  0  0  0
  9 22  1  0  0  0  0
 10 23  1  0  0  0  0
 10 24  1  0  0  0  0
 11 25  1  0  0  0  0
M  END
