 xtb: 6.7.1 (edcfbbe)
          04112511193D

 14 13  0     0  0            999 V2000
   -1.2746    0.2991   -0.1702 C   0  0  0  0  0  0  0  0  0  0  0  0
    0.1483    0.6536    0.2762 C   0  0  0  0  0  0  0  0  0  0  0  0
    1.1863   -0.2614   -0.3987 C   0  0  0  0  0  0  0  0  0  0  0  0
    1.2205   -1.5461    0.1714 O   0  0  0  0  0  0  0  0  0  0  0  0
    0.3396    2.0085   -0.0625 O   0  0  0  0  0  0  0  0  0  0  0  0
   -1.5503   -1.0414    0.1693 O   0  0  0  0  0  0  0  0  0  0  0  0
   -1.3423    0.4558   -1.2544 H   0  0  0  0  0  0  0  0  0  0  0  0
   -1.9687    0.9875    0.3261 H   0  0  0  0  0  0  0  0  0  0  0  0
    0.2211    0.5058    1.3647 H   0  0  0  0  0  0  0  0  0  0  0  0
    2.1890    0.1532   -0.2621 H   0  0  0  0  0  0  0  0  0  0  0  0
    0.9772   -0.3165   -1.4766 H   0  0  0  0  0  0  0  0  0  0  0  0
    0.3098   -1.8839    0.2011 H   0  0  0  0  0  0  0  0  0  0  0  0
    1.2032    2.3043    0.2578 H   0  0  0  0  0  0  0  0  0  0  0  0
   -2.4589   -1.2546   -0.0838 H   0  0  0  0  0  0  0  0  0  0  0  0
  1  2  1  0  0  0  0
  2  3  1  0  0  0  0
  3  4  1  0  0  0  0
  2  5  1  0  0  0  0
  1  6  1  0  0  0  0
  1  7  1  0  0  0  0
  1  8  1  0  0  0  0
  2  9  1  0  0  0  0
  3 10  1  0  0  0  0
  3 11  1  0  0  0  0
  4 12  1  0  0  0  0
  5 13  1  0  0  0  0
  6 14  1  0  0  0  0
M  END
