 xtb: 6.7.1 (edcfbbe)
          04112511193D

 14 13  0     0  0            999 V2000
   -1.2119    0.2499   -0.4566 C   0  0  0  0  0  0  0  0  0  0  0  0
   -0.0449    0.5478    0.5015 C   0  0  0  0  0  0  0  0  0  0  0  0
    0.9104   -0.6510    0.6234 C   0  0  0  0  0  0  0  0  0  0  0  0
    1.6170   -0.8754   -0.5780 O   0  0  0  0  0  0  0  0  0  0  0  0
    0.6513    1.6982    0.0814 O   0  0  0  0  0  0  0  0  0  0  0  0
   -1.9161   -0.8749    0.0209 O   0  0  0  0  0  0  0  0  0  0  0  0
   -0.8191    0.0672   -1.4663 H   0  0  0  0  0  0  0  0  0  0  0  0
   -1.8519    1.1392   -0.4927 H   0  0  0  0  0  0  0  0  0  0  0  0
   -0.4587    0.7670    1.4912 H   0  0  0  0  0  0  0  0  0  0  0  0
    0.3437   -1.5319    0.9349 H   0  0  0  0  0  0  0  0  0  0  0  0
    1.6664   -0.4222    1.3779 H   0  0  0  0  0  0  0  0  0  0  0  0
    1.0541   -1.3622   -1.1946 H   0  0  0  0  0  0  0  0  0  0  0  0
    1.3236    1.4157   -0.5606 H   0  0  0  0  0  0  0  0  0  0  0  0
   -2.7207   -0.9945   -0.5020 H   0  0  0  0  0  0  0  0  0  0  0  0
  1  2  1  0  0  0  0
  2  3  1  0  0  0  0
  3  4  1  0  0  0  0
  2  5  1  0  0  0  0
  1  6  1  0  0  0  0
  1  7  1  0  0  0  0
  1  8  1  0  0  0  0
  2  9  1  0  0  0  0
  3 10  1  0  0  0  0
  3 11  1  0  0  0  0
  4 12  1  0  0  0  0
  5 13  1  0  0  0  0
  6 14  1  0  0  0  0
M  END
