 xtb: 6.7.1 (edcfbbe)
          04112511163D

 13 12  0     0  0            999 V2000
   -1.9234    0.4632   -0.4492 C   0  0  0  0  0  0  0  0  0  0  0  0
   -1.2386   -0.3422    0.5058 O   0  0  0  0  0  0  0  0  0  0  0  0
    0.0423   -0.6948    0.1297 C   0  0  0  0  0  0  0  0  0  0  0  0
    0.8715    0.4429    0.0808 O   0  0  0  0  0  0  0  0  0  0  0  0
    2.2176    0.1319   -0.2197 C   0  0  0  0  0  0  0  0  0  0  0  0
   -2.9062    0.6470   -0.0257 H   0  0  0  0  0  0  0  0  0  0  0  0
   -2.0131   -0.0718   -1.3994 H   0  0  0  0  0  0  0  0  0  0  0  0
   -1.3949    1.4053   -0.6049 H   0  0  0  0  0  0  0  0  0  0  0  0
    0.4027   -1.4007    0.8929 H   0  0  0  0  0  0  0  0  0  0  0  0
    0.0472   -1.1922   -0.8630 H   0  0  0  0  0  0  0  0  0  0  0  0
    2.7449    1.0813   -0.2375 H   0  0  0  0  0  0  0  0  0  0  0  0
    2.2926   -0.3586   -1.1957 H   0  0  0  0  0  0  0  0  0  0  0  0
    2.6448   -0.5215    0.5472 H   0  0  0  0  0  0  0  0  0  0  0  0
  1  2  1  0  0  0  0
  2  3  1  0  0  0  0
  3  4  1  0  0  0  0
  4  5  1  0  0  0  0
  1  6  1  0  0  0  0
  1  7  1  0  0  0  0
  1  8  1  0  0  0  0
  3  9  1  0  0  0  0
  3 10  1  0  0  0  0
  5 11  1  0  0  0  0
  5 12  1  0  0  0  0
  5 13  1  0  0  0  0
M  END
