 xtb: 6.7.1 (edcfbbe)
          04112511193D

 14 13  0     0  0            999 V2000
   -1.4585    0.3601   -0.2078 C   0  0  0  0  0  0  0  0  0  0  0  0
   -0.0006    0.3835    0.2850 C   0  0  0  0  0  0  0  0  0  0  0  0
    0.8230   -0.6966   -0.4257 C   0  0  0  0  0  0  0  0  0  0  0  0
    2.0857   -0.8835    0.1644 O   0  0  0  0  0  0  0  0  0  0  0  0
    0.6142    1.6259    0.0095 O   0  0  0  0  0  0  0  0  0  0  0  0
   -2.1146   -0.8488    0.0811 O   0  0  0  0  0  0  0  0  0  0  0  0
   -1.4684    0.4580   -1.2961 H   0  0  0  0  0  0  0  0  0  0  0  0
   -2.0035    1.2111    0.2224 H   0  0  0  0  0  0  0  0  0  0  0  0
    0.0288    0.1795    1.3671 H   0  0  0  0  0  0  0  0  0  0  0  0
    0.9249   -0.4171   -1.4819 H   0  0  0  0  0  0  0  0  0  0  0  0
    0.3018   -1.6529   -0.3571 H   0  0  0  0  0  0  0  0  0  0  0  0
    2.5622   -0.0410    0.1305 H   0  0  0  0  0  0  0  0  0  0  0  0
    0.1566    2.3357    0.4805 H   0  0  0  0  0  0  0  0  0  0  0  0
   -2.2114   -0.9450    1.0394 H   0  0  0  0  0  0  0  0  0  0  0  0
  1  2  1  0  0  0  0
  2  3  1  0  0  0  0
  3  4  1  0  0  0  0
  2  5  1  0  0  0  0
  1  6  1  0  0  0  0
  1  7  1  0  0  0  0
  1  8  1  0  0  0  0
  2  9  1  0  0  0  0
  3 10  1  0  0  0  0
  3 11  1  0  0  0  0
  4 12  1  0  0  0  0
  5 13  1  0  0  0  0
  6 14  1  0  0  0  0
M  END
