 xtb: 6.7.1 (edcfbbe)
          04112511493D

 21 20  0     0  0            999 V2000
    2.5258   -0.5643   -0.3227 C   0  0  0  0  0  0  0  0  0  0  0  0
    1.2400   -0.0025    0.2791 C   0  0  0  0  0  0  0  0  0  0  0  0
    1.0702   -0.4832    1.2573 H   0  0  0  0  0  0  0  0  0  0  0  0
    0.0316   -0.2660   -0.6366 C   0  0  0  0  0  0  0  0  0  0  0  0
   -1.2862   -0.5367    0.1000 C   0  0  0  0  0  0  0  0  0  0  0  0
   -1.7345    0.6522    0.9482 C   0  0  0  0  0  0  0  0  0  0  0  0
   -2.3735   -0.8929   -0.9132 C   0  0  0  0  0  0  0  0  0  0  0  0
    1.4651    1.3855    0.4819 O   0  0  0  0  0  0  0  0  0  0  0  0
    2.6834   -0.1387   -1.3102 H   0  0  0  0  0  0  0  0  0  0  0  0
    3.3690   -0.2934    0.3071 H   0  0  0  0  0  0  0  0  0  0  0  0
    2.4664   -1.6456   -0.3970 H   0  0  0  0  0  0  0  0  0  0  0  0
   -0.0859    0.5936   -1.3009 H   0  0  0  0  0  0  0  0  0  0  0  0
    0.2550   -1.1329   -1.2600 H   0  0  0  0  0  0  0  0  0  0  0  0
   -1.1349   -1.3973    0.7623 H   0  0  0  0  0  0  0  0  0  0  0  0
   -2.7069    0.4482    1.3913 H   0  0  0  0  0  0  0  0  0  0  0  0
   -1.8239    1.5457    0.3337 H   0  0  0  0  0  0  0  0  0  0  0  0
   -1.0360    0.8413    1.7599 H   0  0  0  0  0  0  0  0  0  0  0  0
   -3.3056   -1.1283   -0.4053 H   0  0  0  0  0  0  0  0  0  0  0  0
   -2.5508   -0.0572   -1.5865 H   0  0  0  0  0  0  0  0  0  0  0  0
   -2.0790   -1.7552   -1.5063 H   0  0  0  0  0  0  0  0  0  0  0  0
    0.6518    1.7975    0.8014 H   0  0  0  0  0  0  0  0  0  0  0  0
  1  2  1  0  0  0  0
  2  3  1  0  0  0  0
  2  4  1  0  0  0  0
  4  5  1  0  0  0  0
  5  6  1  0  0  0  0
  5  7  1  0  0  0  0
  2  8  1  0  0  0  0
  1  9  1  0  0  0  0
  1 10  1  0  0  0  0
  1 11  1  0  0  0  0
  4 12  1  0  0  0  0
  4 13  1  0  0  0  0
  5 14  1  0  0  0  0
  6 15  1  0  0  0  0
  6 16  1  0  0  0  0
  6 17  1  0  0  0  0
  7 18  1  0  0  0  0
  7 19  1  0  0  0  0
  7 20  1  0  0  0  0
  8 21  1  0  0  0  0
M  END
