 xtb: 6.7.1 (edcfbbe)
          04112512213D

 19 18  0     0  0            999 V2000
    1.4922   -0.9433    0.7523 C   0  0  0  0  0  0  0  0  0  0  0  0
    1.0848   -0.2471   -0.5434 C   0  0  0  0  0  0  0  0  0  0  0  0
    2.2948    0.4141   -1.1988 C   0  0  0  0  0  0  0  0  0  0  0  0
    0.0008    0.8124   -0.2699 C   0  0  0  0  0  0  0  0  0  0  0  0
   -1.2526    0.2214    0.3255 C   0  0  0  0  0  0  0  0  0  0  0  0
   -1.5762    0.4301    1.4797 O   0  0  0  0  0  0  0  0  0  0  0  0
   -2.0744   -0.6371   -0.5904 C   0  0  0  0  0  0  0  0  0  0  0  0
    2.2370   -1.7102    0.5547 H   0  0  0  0  0  0  0  0  0  0  0  0
    1.9149   -0.2243    1.4508 H   0  0  0  0  0  0  0  0  0  0  0  0
    0.6334   -1.4101    1.2308 H   0  0  0  0  0  0  0  0  0  0  0  0
    0.6827   -0.9931   -1.2353 H   0  0  0  0  0  0  0  0  0  0  0  0
    2.7124    1.1759   -0.5446 H   0  0  0  0  0  0  0  0  0  0  0  0
    2.0163    0.8819   -2.1397 H   0  0  0  0  0  0  0  0  0  0  0  0
    3.0652   -0.3266   -1.3973 H   0  0  0  0  0  0  0  0  0  0  0  0
   -0.2551    1.3059   -1.2078 H   0  0  0  0  0  0  0  0  0  0  0  0
    0.3965    1.5537    0.4272 H   0  0  0  0  0  0  0  0  0  0  0  0
   -2.3038   -0.0940   -1.5027 H   0  0  0  0  0  0  0  0  0  0  0  0
   -1.5051   -1.5231   -0.8611 H   0  0  0  0  0  0  0  0  0  0  0  0
   -2.9932   -0.9392   -0.0953 H   0  0  0  0  0  0  0  0  0  0  0  0
  1  2  1  0  0  0  0
  2  3  1  0  0  0  0
  2  4  1  0  0  0  0
  4  5  1  0  0  0  0
  5  6  2  0  0  0  0
  5  7  1  0  0  0  0
  1  8  1  0  0  0  0
  1  9  1  0  0  0  0
  1 10  1  0  0  0  0
  2 11  1  0  0  0  0
  3 12  1  0  0  0  0
  3 13  1  0  0  0  0
  3 14  1  0  0  0  0
  4 15  1  0  0  0  0
  4 16  1  0  0  0  0
  7 17  1  0  0  0  0
  7 18  1  0  0  0  0
  7 19  1  0  0  0  0
M  END
