 xtb: 6.7.1 (edcfbbe)
          04072508503D

 19 19  0     0  0            999 V2000
   -2.6126   -0.3493    0.1716 C   0  0  0  0  0  0  0  0  0  0  0  0
   -1.6510   -1.2687   -0.2128 C   0  0  0  0  0  0  0  0  0  0  0  0
   -0.3427   -0.8659   -0.4126 C   0  0  0  0  0  0  0  0  0  0  0  0
    0.0268    0.4609   -0.2229 C   0  0  0  0  0  0  0  0  0  0  0  0
   -0.9438    1.3735    0.1709 C   0  0  0  0  0  0  0  0  0  0  0  0
   -2.2550    0.9739    0.3635 C   0  0  0  0  0  0  0  0  0  0  0  0
    1.4509    0.8996   -0.4267 C   0  0  0  0  0  0  0  0  0  0  0  0
    2.4371    0.1565    0.4902 C   0  0  0  0  0  0  0  0  0  0  0  0
    2.7299   -1.1571    0.0686 O   0  0  0  0  0  0  0  0  0  0  0  0
   -3.6348   -0.6632    0.3225 H   0  0  0  0  0  0  0  0  0  0  0  0
   -1.9216   -2.3040   -0.3599 H   0  0  0  0  0  0  0  0  0  0  0  0
    0.4042   -1.5902   -0.6995 H   0  0  0  0  0  0  0  0  0  0  0  0
   -0.6723    2.4080    0.3262 H   0  0  0  0  0  0  0  0  0  0  0  0
   -2.9982    1.6970    0.6659 H   0  0  0  0  0  0  0  0  0  0  0  0
    1.7416    0.7284   -1.4664 H   0  0  0  0  0  0  0  0  0  0  0  0
    1.5338    1.9676   -0.2225 H   0  0  0  0  0  0  0  0  0  0  0  0
    3.3655    0.7375    0.5699 H   0  0  0  0  0  0  0  0  0  0  0  0
    2.0086    0.0530    1.4901 H   0  0  0  0  0  0  0  0  0  0  0  0
    3.1985   -1.1175   -0.7771 H   0  0  0  0  0  0  0  0  0  0  0  0
  1  2  4  0  0  0  0
  2  3  4  0  0  0  0
  3  4  4  0  0  0  0
  4  5  4  0  0  0  0
  1  6  4  0  0  0  0
  5  6  4  0  0  0  0
  4  7  1  0  0  0  0
  7  8  1  0  0  0  0
  8  9  1  0  0  0  0
  1 10  1  0  0  0  0
  2 11  1  0  0  0  0
  3 12  1  0  0  0  0
  5 13  1  0  0  0  0
  6 14  1  0  0  0  0
  7 15  1  0  0  0  0
  7 16  1  0  0  0  0
  8 17  1  0  0  0  0
  8 18  1  0  0  0  0
  9 19  1  0  0  0  0
M  END
