 xtb: 6.7.1 (edcfbbe)
          04112511583D

 18 17  0     0  0            999 V2000
   -1.8288    0.9850    0.7985 C   0  0  0  0  0  0  0  0  0  0  0  0
   -1.1496    0.3408   -0.4052 C   0  0  0  0  0  0  0  0  0  0  0  0
    0.0030   -0.6056   -0.0169 C   0  0  0  0  0  0  0  0  0  0  0  0
    1.3885    0.0136   -0.2270 C   0  0  0  0  0  0  0  0  0  0  0  0
    1.6663    1.2156    0.6642 C   0  0  0  0  0  0  0  0  0  0  0  0
   -0.0107   -1.7930   -0.7999 O   0  0  0  0  0  0  0  0  0  0  0  0
   -2.2563    0.2255    1.4494 H   0  0  0  0  0  0  0  0  0  0  0  0
   -1.1213    1.5713    1.3776 H   0  0  0  0  0  0  0  0  0  0  0  0
   -2.6295    1.6414    0.4667 H   0  0  0  0  0  0  0  0  0  0  0  0
   -1.8922   -0.2332   -0.9646 H   0  0  0  0  0  0  0  0  0  0  0  0
   -0.7732    1.1135   -1.0770 H   0  0  0  0  0  0  0  0  0  0  0  0
   -0.1005   -0.8809    1.0451 H   0  0  0  0  0  0  0  0  0  0  0  0
    2.1248   -0.7690   -0.0315 H   0  0  0  0  0  0  0  0  0  0  0  0
    1.4806    0.2913   -1.2789 H   0  0  0  0  0  0  0  0  0  0  0  0
    1.5309    0.9532    1.7109 H   0  0  0  0  0  0  0  0  0  0  0  0
    2.6912    1.5483    0.5230 H   0  0  0  0  0  0  0  0  0  0  0  0
    1.0042    2.0421    0.4220 H   0  0  0  0  0  0  0  0  0  0  0  0
   -0.8347   -2.2723   -0.6406 H   0  0  0  0  0  0  0  0  0  0  0  0
  1  2  1  0  0  0  0
  2  3  1  0  0  0  0
  3  4  1  0  0  0  0
  4  5  1  0  0  0  0
  3  6  1  0  0  0  0
  1  7  1  0  0  0  0
  1  8  1  0  0  0  0
  1  9  1  0  0  0  0
  2 10  1  0  0  0  0
  2 11  1  0  0  0  0
  3 12  1  0  0  0  0
  4 13  1  0  0  0  0
  4 14  1  0  0  0  0
  5 15  1  0  0  0  0
  5 16  1  0  0  0  0
  5 17  1  0  0  0  0
  6 18  1  0  0  0  0
M  END
