 xtb: 6.7.1 (edcfbbe)
          04112512233D

 20 19  0     0  0            999 V2000
   -1.3699   -1.2059    0.8455 C   0  0  0  0  0  0  0  0  0  0  0  0
   -1.7731   -0.2465   -0.2732 C   0  0  0  0  0  0  0  0  0  0  0  0
   -2.4326    1.0002    0.3136 C   0  0  0  0  0  0  0  0  0  0  0  0
   -0.5669    0.1574   -1.1591 C   0  0  0  0  0  0  0  0  0  0  0  0
    0.6599   -0.4751   -0.7806 O   0  0  0  0  0  0  0  0  0  0  0  0
    1.4604    0.1468    0.0779 C   0  0  0  0  0  0  0  0  0  0  0  0
    1.2148    1.2319    0.5640 O   0  0  0  0  0  0  0  0  0  0  0  0
    2.7055   -0.6469    0.3397 C   0  0  0  0  0  0  0  0  0  0  0  0
   -0.8855   -2.0908    0.4399 H   0  0  0  0  0  0  0  0  0  0  0  0
   -2.2533   -1.5141    1.3979 H   0  0  0  0  0  0  0  0  0  0  0  0
   -0.6861   -0.7196    1.5396 H   0  0  0  0  0  0  0  0  0  0  0  0
   -2.4997   -0.7593   -0.9099 H   0  0  0  0  0  0  0  0  0  0  0  0
   -2.7733    1.6625   -0.4782 H   0  0  0  0  0  0  0  0  0  0  0  0
   -1.7223    1.5403    0.9369 H   0  0  0  0  0  0  0  0  0  0  0  0
   -3.2879    0.7222    0.9237 H   0  0  0  0  0  0  0  0  0  0  0  0
   -0.7213   -0.1491   -2.1940 H   0  0  0  0  0  0  0  0  0  0  0  0
   -0.4172    1.2405   -1.1150 H   0  0  0  0  0  0  0  0  0  0  0  0
    3.4880   -0.2835   -0.3230 H   0  0  0  0  0  0  0  0  0  0  0  0
    2.5263   -1.6968    0.1352 H   0  0  0  0  0  0  0  0  0  0  0  0
    3.0270   -0.4935    1.3651 H   0  0  0  0  0  0  0  0  0  0  0  0
  1  2  1  0  0  0  0
  2  3  1  0  0  0  0
  2  4  1  0  0  0  0
  4  5  1  0  0  0  0
  5  6  1  0  0  0  0
  6  7  2  0  0  0  0
  6  8  1  0  0  0  0
  1  9  1  0  0  0  0
  1 10  1  0  0  0  0
  1 11  1  0  0  0  0
  2 12  1  0  0  0  0
  3 13  1  0  0  0  0
  3 14  1  0  0  0  0
  3 15  1  0  0  0  0
  4 16  1  0  0  0  0
  4 17  1  0  0  0  0
  8 18  1  0  0  0  0
  8 19  1  0  0  0  0
  8 20  1  0  0  0  0
M  END
