 xtb: 6.7.1 (edcfbbe)
          04112512193D

 17 16  0     0  0            999 V2000
   -2.5480    0.2303    0.8821 C   0  0  0  0  0  0  0  0  0  0  0  0
   -1.7399    0.6750   -0.3408 C   0  0  0  0  0  0  0  0  0  0  0  0
   -0.5072   -0.1837   -0.4541 C   0  0  0  0  0  0  0  0  0  0  0  0
   -0.4456   -1.2297   -1.0688 O   0  0  0  0  0  0  0  0  0  0  0  0
    0.5052    0.3255    0.2306 O   0  0  0  0  0  0  0  0  0  0  0  0
    1.7520   -0.3904    0.2619 C   0  0  0  0  0  0  0  0  0  0  0  0
    2.8791    0.6104    0.4372 C   0  0  0  0  0  0  0  0  0  0  0  0
   -1.9650    0.3661    1.7894 H   0  0  0  0  0  0  0  0  0  0  0  0
   -3.4560    0.8210    0.9556 H   0  0  0  0  0  0  0  0  0  0  0  0
   -2.8181   -0.8194    0.7927 H   0  0  0  0  0  0  0  0  0  0  0  0
   -1.4377    1.7149   -0.2290 H   0  0  0  0  0  0  0  0  0  0  0  0
   -2.3337    0.5473   -1.2451 H   0  0  0  0  0  0  0  0  0  0  0  0
    1.7114   -1.0938    1.0993 H   0  0  0  0  0  0  0  0  0  0  0  0
    1.8488   -0.9591   -0.6685 H   0  0  0  0  0  0  0  0  0  0  0  0
    2.7292    1.1801    1.3496 H   0  0  0  0  0  0  0  0  0  0  0  0
    3.8236    0.0796    0.4960 H   0  0  0  0  0  0  0  0  0  0  0  0
    2.9068    1.2970   -0.4042 H   0  0  0  0  0  0  0  0  0  0  0  0
  1  2  1  0  0  0  0
  2  3  1  0  0  0  0
  3  4  2  0  0  0  0
  3  5  1  0  0  0  0
  5  6  1  0  0  0  0
  6  7  1  0  0  0  0
  1  8  1  0  0  0  0
  1  9  1  0  0  0  0
  1 10  1  0  0  0  0
  2 11  1  0  0  0  0
  2 12  1  0  0  0  0
  6 13  1  0  0  0  0
  6 14  1  0  0  0  0
  7 15  1  0  0  0  0
  7 16  1  0  0  0  0
  7 17  1  0  0  0  0
M  END
