 xtb: 6.7.1 (edcfbbe)
          04112511523D

 13 12  0     0  0            999 V2000
   -1.9622   -0.2661    0.4764 C   0  0  0  0  0  0  0  0  0  0  0  0
   -1.0488   -0.2024   -0.6006 O   0  0  0  0  0  0  0  0  0  0  0  0
   -0.0369    0.7714   -0.4646 C   0  0  0  0  0  0  0  0  0  0  0  0
    1.0734    0.4109    0.5279 C   0  0  0  0  0  0  0  0  0  0  0  0
    1.8594   -0.6270   -0.0177 O   0  0  0  0  0  0  0  0  0  0  0  0
   -2.3943    0.7207    0.6761 H   0  0  0  0  0  0  0  0  0  0  0  0
   -1.4930   -0.6461    1.3886 H   0  0  0  0  0  0  0  0  0  0  0  0
   -2.7431   -0.9538    0.1613 H   0  0  0  0  0  0  0  0  0  0  0  0
    0.4045    0.8574   -1.4597 H   0  0  0  0  0  0  0  0  0  0  0  0
   -0.4789    1.7334   -0.1698 H   0  0  0  0  0  0  0  0  0  0  0  0
    0.6342    0.1013    1.4840 H   0  0  0  0  0  0  0  0  0  0  0  0
    1.6835    1.3087    0.6920 H   0  0  0  0  0  0  0  0  0  0  0  0
    2.5512   -0.8740    0.6113 H   0  0  0  0  0  0  0  0  0  0  0  0
  1  2  1  0  0  0  0
  2  3  1  0  0  0  0
  3  4  1  0  0  0  0
  4  5  1  0  0  0  0
  1  6  1  0  0  0  0
  1  7  1  0  0  0  0
  1  8  1  0  0  0  0
  3  9  1  0  0  0  0
  3 10  1  0  0  0  0
  4 11  1  0  0  0  0
  4 12  1  0  0  0  0
  5 13  1  0  0  0  0
M  END
