 xtb: 6.7.1 (edcfbbe)
          04112511233D

 24 24  0     0  0            999 V2000
    2.2099   -0.6586   -1.3690 C   0  0  0  0  0  0  0  0  0  0  0  0
    2.3102   -0.1223    0.0564 C   0  0  0  0  0  0  0  0  0  0  0  0
    2.2860    1.4036    0.0510 C   0  0  0  0  0  0  0  0  0  0  0  0
    1.2031   -0.7042    0.9605 C   0  0  0  0  0  0  0  0  0  0  0  0
   -0.1842   -0.3458    0.5124 C   0  0  0  0  0  0  0  0  0  0  0  0
   -0.8038    0.8109    0.9714 C   0  0  0  0  0  0  0  0  0  0  0  0
   -2.0714    1.1572    0.5379 C   0  0  0  0  0  0  0  0  0  0  0  0
   -2.7442    0.3473   -0.3612 C   0  0  0  0  0  0  0  0  0  0  0  0
   -2.1437   -0.8147   -0.8151 C   0  0  0  0  0  0  0  0  0  0  0  0
   -0.8759   -1.1576   -0.3794 C   0  0  0  0  0  0  0  0  0  0  0  0
    2.2439   -1.7456   -1.3754 H   0  0  0  0  0  0  0  0  0  0  0  0
    3.0379   -0.2874   -1.9687 H   0  0  0  0  0  0  0  0  0  0  0  0
    1.2799   -0.3368   -1.8324 H   0  0  0  0  0  0  0  0  0  0  0  0
    3.2678   -0.4487    0.4791 H   0  0  0  0  0  0  0  0  0  0  0  0
    2.3749    1.7943    1.0622 H   0  0  0  0  0  0  0  0  0  0  0  0
    3.1143    1.7900   -0.5384 H   0  0  0  0  0  0  0  0  0  0  0  0
    1.3574    1.7684   -0.3825 H   0  0  0  0  0  0  0  0  0  0  0  0
    1.3612   -0.3347    1.9759 H   0  0  0  0  0  0  0  0  0  0  0  0
    1.3086   -1.7910    0.9741 H   0  0  0  0  0  0  0  0  0  0  0  0
   -0.2907    1.4449    1.6799 H   0  0  0  0  0  0  0  0  0  0  0  0
   -2.5368    2.0607    0.9043 H   0  0  0  0  0  0  0  0  0  0  0  0
   -3.7333    0.6166   -0.7009 H   0  0  0  0  0  0  0  0  0  0  0  0
   -2.6657   -1.4570   -1.5094 H   0  0  0  0  0  0  0  0  0  0  0  0
   -0.4193   -2.0707   -0.7328 H   0  0  0  0  0  0  0  0  0  0  0  0
  1  2  1  0  0  0  0
  2  3  1  0  0  0  0
  2  4  1  0  0  0  0
  4  5  1  0  0  0  0
  5  6  4  0  0  0  0
  6  7  4  0  0  0  0
  7  8  4  0  0  0  0
  8  9  4  0  0  0  0
  5 10  4  0  0  0  0
  9 10  4  0  0  0  0
  1 11  1  0  0  0  0
  1 12  1  0  0  0  0
  1 13  1  0  0  0  0
  2 14  1  0  0  0  0
  3 15  1  0  0  0  0
  3 16  1  0  0  0  0
  3 17  1  0  0  0  0
  4 18  1  0  0  0  0
  4 19  1  0  0  0  0
  6 20  1  0  0  0  0
  7 21  1  0  0  0  0
  8 22  1  0  0  0  0
  9 23  1  0  0  0  0
 10 24  1  0  0  0  0
M  END
