 xtb: 6.7.1 (edcfbbe)
          04112511133D

 21 21  0     0  0            999 V2000
   -3.2390    1.2796    0.1362 C   0  0  0  0  0  0  0  0  0  0  0  0
   -1.9071    0.7833   -0.3241 C   0  0  0  0  0  0  0  0  0  0  0  0
   -1.7025    0.1357   -1.3272 O   0  0  0  0  0  0  0  0  0  0  0  0
   -0.9303    1.1979    0.4945 O   0  0  0  0  0  0  0  0  0  0  0  0
    0.3890    0.8258    0.2644 C   0  0  0  0  0  0  0  0  0  0  0  0
    1.3308    1.8401    0.1827 C   0  0  0  0  0  0  0  0  0  0  0  0
    2.6621    1.5291   -0.0319 C   0  0  0  0  0  0  0  0  0  0  0  0
    3.0534    0.2080   -0.1863 C   0  0  0  0  0  0  0  0  0  0  0  0
    2.1164   -0.8038   -0.1070 C   0  0  0  0  0  0  0  0  0  0  0  0
    0.7737   -0.5115    0.1314 C   0  0  0  0  0  0  0  0  0  0  0  0
   -0.2087   -1.6095    0.2751 C   0  0  0  0  0  0  0  0  0  0  0  0
   -1.2309   -1.5388    0.9329 O   0  0  0  0  0  0  0  0  0  0  0  0
    0.1501   -2.7117   -0.3603 O   0  0  0  0  0  0  0  0  0  0  0  0
   -4.0033    0.5574   -0.1326 H   0  0  0  0  0  0  0  0  0  0  0  0
   -3.4518    2.2171   -0.3741 H   0  0  0  0  0  0  0  0  0  0  0  0
   -3.2189    1.4492    1.2073 H   0  0  0  0  0  0  0  0  0  0  0  0
    1.0020    2.8611    0.2902 H   0  0  0  0  0  0  0  0  0  0  0  0
    3.3905    2.3219   -0.0875 H   0  0  0  0  0  0  0  0  0  0  0  0
    4.0883   -0.0336   -0.3659 H   0  0  0  0  0  0  0  0  0  0  0  0
    2.4069   -1.8364   -0.2157 H   0  0  0  0  0  0  0  0  0  0  0  0
   -0.5002   -3.4329   -0.2522 H   0  0  0  0  0  0  0  0  0  0  0  0
  1  2  1  0  0  0  0
  2  3  2  0  0  0  0
  2  4  1  0  0  0  0
  4  5  1  0  0  0  0
  5  6  4  0  0  0  0
  6  7  4  0  0  0  0
  7  8  4  0  0  0  0
  8  9  4  0  0  0  0
  5 10  4  0  0  0  0
  9 10  4  0  0  0  0
 10 11  1  0  0  0  0
 11 12  2  0  0  0  0
 11 13  1  0  0  0  0
  1 14  1  0  0  0  0
  1 15  1  0  0  0  0
  1 16  1  0  0  0  0
  6 17  1  0  0  0  0
  7 18  1  0  0  0  0
  8 19  1  0  0  0  0
  9 20  1  0  0  0  0
 13 21  1  0  0  0  0
M  END
