 xtb: 6.7.1 (edcfbbe)
          04112512013D

 22 22  0     0  0            999 V2000
    4.8909   -0.5680   -1.1835 C   0  0  0  0  0  0  0  0  0  0  0  0
    4.5423   -0.3957    0.2975 C   0  0  0  0  0  0  0  0  0  0  0  0
    3.2474    0.3743    0.4459 C   0  0  0  0  0  0  0  0  0  0  0  0
    3.2144    1.5550    0.7532 O   0  0  0  0  0  0  0  0  0  0  0  0
    2.1462   -0.3798    0.1773 N   0  0  0  0  0  0  0  0  0  0  0  0
    0.8060   -0.0081    0.1671 C   0  0  0  0  0  0  0  0  0  0  0  0
    0.3704    1.2846    0.4556 C   0  0  0  0  0  0  0  0  0  0  0  0
   -0.9771    1.5859    0.4280 C   0  0  0  0  0  0  0  0  0  0  0  0
   -1.9101    0.6102    0.1144 C   0  0  0  0  0  0  0  0  0  0  0  0
   -1.4815   -0.6799   -0.1744 C   0  0  0  0  0  0  0  0  0  0  0  0
   -0.1351   -0.9897   -0.1492 C   0  0  0  0  0  0  0  0  0  0  0  0
   -2.6336   -1.9133   -0.5684 Cl  0  0  0  0  0  0  0  0  0  0  0  0
   -3.6011    0.9998    0.0839 Cl  0  0  0  0  0  0  0  0  0  0  0  0
    5.8426   -1.0827   -1.2794 H   0  0  0  0  0  0  0  0  0  0  0  0
    4.9749    0.4042   -1.6633 H   0  0  0  0  0  0  0  0  0  0  0  0
    4.1307   -1.1437   -1.7042 H   0  0  0  0  0  0  0  0  0  0  0  0
    5.3272    0.1760    0.7926 H   0  0  0  0  0  0  0  0  0  0  0  0
    4.4564   -1.3695    0.7793 H   0  0  0  0  0  0  0  0  0  0  0  0
    2.3145   -1.3498   -0.0597 H   0  0  0  0  0  0  0  0  0  0  0  0
    1.0903    2.0472    0.7006 H   0  0  0  0  0  0  0  0  0  0  0  0
   -1.3131    2.5848    0.6511 H   0  0  0  0  0  0  0  0  0  0  0  0
    0.1727   -1.9973   -0.3767 H   0  0  0  0  0  0  0  0  0  0  0  0
  1  2  1  0  0  0  0
  2  3  1  0  0  0  0
  3  4  2  0  0  0  0
  3  5  4  0  0  0  0
  5  6  1  0  0  0  0
  6  7  4  0  0  0  0
  7  8  4  0  0  0  0
  8  9  4  0  0  0  0
  9 10  4  0  0  0  0
  6 11  4  0  0  0  0
 10 11  4  0  0  0  0
 10 12  1  0  0  0  0
  9 13  1  0  0  0  0
  1 14  1  0  0  0  0
  1 15  1  0  0  0  0
  1 16  1  0  0  0  0
  2 17  1  0  0  0  0
  2 18  1  0  0  0  0
  5 19  1  0  0  0  0
  7 20  1  0  0  0  0
  8 21  1  0  0  0  0
 11 22  1  0  0  0  0
M  END
