 xtb: 6.7.1 (edcfbbe)
          04112511243D

 20 19  0     0  0            999 V2000
   -0.4028   -2.3841    0.7651 C   0  0  0  0  0  0  0  0  0  0  0  0
    0.0785   -1.3221   -0.2085 C   0  0  0  0  0  0  0  0  0  0  0  0
    1.0715   -0.5576    0.4539 O   0  0  0  0  0  0  0  0  0  0  0  0
    1.6292    0.4917   -0.1663 C   0  0  0  0  0  0  0  0  0  0  0  0
    1.3238    0.8336   -1.2868 O   0  0  0  0  0  0  0  0  0  0  0  0
    2.6573    1.1468    0.6969 C   0  0  0  0  0  0  0  0  0  0  0  0
   -0.9944   -0.5305   -0.7058 O   0  0  0  0  0  0  0  0  0  0  0  0
   -1.5444    0.4469    0.0292 C   0  0  0  0  0  0  0  0  0  0  0  0
   -1.1988    0.7227    1.1549 O   0  0  0  0  0  0  0  0  0  0  0  0
   -2.6141    1.1463   -0.7475 C   0  0  0  0  0  0  0  0  0  0  0  0
   -0.8173   -1.8992    1.6452 H   0  0  0  0  0  0  0  0  0  0  0  0
    0.4387   -3.0017    1.0591 H   0  0  0  0  0  0  0  0  0  0  0  0
   -1.1623   -2.9920    0.2848 H   0  0  0  0  0  0  0  0  0  0  0  0
    0.5068   -1.7565   -1.1229 H   0  0  0  0  0  0  0  0  0  0  0  0
    2.5063    2.2225    0.6797 H   0  0  0  0  0  0  0  0  0  0  0  0
    2.5897    0.7613    1.7080 H   0  0  0  0  0  0  0  0  0  0  0  0
    3.6408    0.9382    0.2815 H   0  0  0  0  0  0  0  0  0  0  0  0
   -2.1363    1.7450   -1.5203 H   0  0  0  0  0  0  0  0  0  0  0  0
   -3.2514    0.4142   -1.2334 H   0  0  0  0  0  0  0  0  0  0  0  0
   -3.1847    1.7885   -0.0852 H   0  0  0  0  0  0  0  0  0  0  0  0
  1  2  1  0  0  0  0
  2  3  1  0  0  0  0
  3  4  1  0  0  0  0
  4  5  2  0  0  0  0
  4  6  1  0  0  0  0
  2  7  1  0  0  0  0
  7  8  1  0  0  0  0
  8  9  2  0  0  0  0
  8 10  1  0  0  0  0
  1 11  1  0  0  0  0
  1 12  1  0  0  0  0
  1 13  1  0  0  0  0
  2 14  1  0  0  0  0
  6 15  1  0  0  0  0
  6 16  1  0  0  0  0
  6 17  1  0  0  0  0
 10 18  1  0  0  0  0
 10 19  1  0  0  0  0
 10 20  1  0  0  0  0
M  END
