 xtb: 6.7.1 (edcfbbe)
          04112512233D

 20 19  0     0  0            999 V2000
   -2.2922    0.1137   -1.2468 C   0  0  0  0  0  0  0  0  0  0  0  0
   -1.9580    0.0856    0.2427 C   0  0  0  0  0  0  0  0  0  0  0  0
   -2.0451   -1.3347    0.7967 C   0  0  0  0  0  0  0  0  0  0  0  0
   -0.5699    0.6744    0.4926 C   0  0  0  0  0  0  0  0  0  0  0  0
    0.4132   -0.1251   -0.1775 O   0  0  0  0  0  0  0  0  0  0  0  0
    1.6859    0.2047   -0.0109 C   0  0  0  0  0  0  0  0  0  0  0  0
    2.0428    1.1511    0.6628 O   0  0  0  0  0  0  0  0  0  0  0  0
    2.6066   -0.7337   -0.7315 C   0  0  0  0  0  0  0  0  0  0  0  0
   -1.5764   -0.4883   -1.8001 H   0  0  0  0  0  0  0  0  0  0  0  0
   -2.2581    1.1315   -1.6275 H   0  0  0  0  0  0  0  0  0  0  0  0
   -3.2882   -0.2861   -1.4154 H   0  0  0  0  0  0  0  0  0  0  0  0
   -2.6673    0.7230    0.7801 H   0  0  0  0  0  0  0  0  0  0  0  0
   -1.3261   -1.9752    0.2930 H   0  0  0  0  0  0  0  0  0  0  0  0
   -3.0415   -1.7381    0.6398 H   0  0  0  0  0  0  0  0  0  0  0  0
   -1.8315   -1.3434    1.8628 H   0  0  0  0  0  0  0  0  0  0  0  0
   -0.4989    1.6996    0.1134 H   0  0  0  0  0  0  0  0  0  0  0  0
   -0.3315    0.6930    1.5617 H   0  0  0  0  0  0  0  0  0  0  0  0
    3.5138   -0.2091   -1.0136 H   0  0  0  0  0  0  0  0  0  0  0  0
    2.1072   -1.1522   -1.5986 H   0  0  0  0  0  0  0  0  0  0  0  0
    2.8706   -1.5419   -0.0524 H   0  0  0  0  0  0  0  0  0  0  0  0
  1  2  1  0  0  0  0
  2  3  1  0  0  0  0
  2  4  1  0  0  0  0
  4  5  1  0  0  0  0
  5  6  1  0  0  0  0
  6  7  2  0  0  0  0
  6  8  1  0  0  0  0
  1  9  1  0  0  0  0
  1 10  1  0  0  0  0
  1 11  1  0  0  0  0
  2 12  1  0  0  0  0
  3 13  1  0  0  0  0
  3 14  1  0  0  0  0
  3 15  1  0  0  0  0
  4 16  1  0  0  0  0
  4 17  1  0  0  0  0
  8 18  1  0  0  0  0
  8 19  1  0  0  0  0
  8 20  1  0  0  0  0
M  END
