 xtb: 6.7.1 (edcfbbe)
          04112511583D

 20 19  0     0  0            999 V2000
    2.3110    0.0496   -0.7189 C   0  0  0  0  0  0  0  0  0  0  0  0
    1.5851   -0.2414    0.5901 C   0  0  0  0  0  0  0  0  0  0  0  0
    0.2490    0.4932    0.7167 C   0  0  0  0  0  0  0  0  0  0  0  0
   -0.8284    0.0780   -0.2924 C   0  0  0  0  0  0  0  0  0  0  0  0
   -2.0325    1.0113   -0.1659 C   0  0  0  0  0  0  0  0  0  0  0  0
   -1.2713   -1.3689   -0.0867 C   0  0  0  0  0  0  0  0  0  0  0  0
    1.7576   -0.3405   -1.5690 H   0  0  0  0  0  0  0  0  0  0  0  0
    2.4371    1.1219   -0.8525 H   0  0  0  0  0  0  0  0  0  0  0  0
    3.2947   -0.4140   -0.7148 H   0  0  0  0  0  0  0  0  0  0  0  0
    1.4304   -1.3167    0.6896 H   0  0  0  0  0  0  0  0  0  0  0  0
    2.2220    0.0727    1.4207 H   0  0  0  0  0  0  0  0  0  0  0  0
   -0.1431    0.3330    1.7245 H   0  0  0  0  0  0  0  0  0  0  0  0
    0.4349    1.5645    0.6039 H   0  0  0  0  0  0  0  0  0  0  0  0
   -0.4251    0.1803   -1.3048 H   0  0  0  0  0  0  0  0  0  0  0  0
   -1.7397    2.0436   -0.3439 H   0  0  0  0  0  0  0  0  0  0  0  0
   -2.4605    0.9433    0.8322 H   0  0  0  0  0  0  0  0  0  0  0  0
   -2.8009    0.7439   -0.8877 H   0  0  0  0  0  0  0  0  0  0  0  0
   -2.0757   -1.6179   -0.7752 H   0  0  0  0  0  0  0  0  0  0  0  0
   -0.4517   -2.0603   -0.2625 H   0  0  0  0  0  0  0  0  0  0  0  0
   -1.6330   -1.5122    0.9295 H   0  0  0  0  0  0  0  0  0  0  0  0
  1  2  1  0  0  0  0
  2  3  1  0  0  0  0
  3  4  1  0  0  0  0
  4  5  1  0  0  0  0
  4  6  1  0  0  0  0
  1  7  1  0  0  0  0
  1  8  1  0  0  0  0
  1  9  1  0  0  0  0
  2 10  1  0  0  0  0
  2 11  1  0  0  0  0
  3 12  1  0  0  0  0
  3 13  1  0  0  0  0
  4 14  1  0  0  0  0
  5 15  1  0  0  0  0
  5 16  1  0  0  0  0
  5 17  1  0  0  0  0
  6 18  1  0  0  0  0
  6 19  1  0  0  0  0
  6 20  1  0  0  0  0
M  END
