 xtb: 6.7.1 (edcfbbe)
          04112511493D

 21 20  0     0  0            999 V2000
    1.7403   -1.1911   -0.1004 C   0  0  0  0  0  0  0  0  0  0  0  0
    1.2383    0.1287    0.4797 C   0  0  0  0  0  0  0  0  0  0  0  0
    1.0578    0.0012    1.5613 H   0  0  0  0  0  0  0  0  0  0  0  0
   -0.0567    0.6177   -0.1771 C   0  0  0  0  0  0  0  0  0  0  0  0
   -1.2875   -0.2593    0.1085 C   0  0  0  0  0  0  0  0  0  0  0  0
   -2.4906    0.6081    0.4784 C   0  0  0  0  0  0  0  0  0  0  0  0
   -1.6399   -1.1367   -1.0920 C   0  0  0  0  0  0  0  0  0  0  0  0
    2.1917    1.1668    0.2957 O   0  0  0  0  0  0  0  0  0  0  0  0
    1.0113   -1.9762    0.0721 H   0  0  0  0  0  0  0  0  0  0  0  0
    1.9086   -1.0852   -1.1695 H   0  0  0  0  0  0  0  0  0  0  0  0
    2.6755   -1.4825    0.3737 H   0  0  0  0  0  0  0  0  0  0  0  0
   -0.2252    1.6300    0.1953 H   0  0  0  0  0  0  0  0  0  0  0  0
    0.1146    0.6972   -1.2516 H   0  0  0  0  0  0  0  0  0  0  0  0
   -1.0645   -0.9086    0.9626 H   0  0  0  0  0  0  0  0  0  0  0  0
   -2.7306    1.2870   -0.3368 H   0  0  0  0  0  0  0  0  0  0  0  0
   -2.2810    1.1971    1.3681 H   0  0  0  0  0  0  0  0  0  0  0  0
   -3.3612   -0.0133    0.6757 H   0  0  0  0  0  0  0  0  0  0  0  0
   -1.9275   -0.5148   -1.9369 H   0  0  0  0  0  0  0  0  0  0  0  0
   -0.7963   -1.7520   -1.3908 H   0  0  0  0  0  0  0  0  0  0  0  0
   -2.4742   -1.7915   -0.8503 H   0  0  0  0  0  0  0  0  0  0  0  0
    3.0472    0.8787    0.6417 H   0  0  0  0  0  0  0  0  0  0  0  0
  1  2  1  0  0  0  0
  2  3  1  0  0  0  0
  2  4  1  0  0  0  0
  4  5  1  0  0  0  0
  5  6  1  0  0  0  0
  5  7  1  0  0  0  0
  2  8  1  0  0  0  0
  1  9  1  0  0  0  0
  1 10  1  0  0  0  0
  1 11  1  0  0  0  0
  4 12  1  0  0  0  0
  4 13  1  0  0  0  0
  5 14  1  0  0  0  0
  6 15  1  0  0  0  0
  6 16  1  0  0  0  0
  6 17  1  0  0  0  0
  7 18  1  0  0  0  0
  7 19  1  0  0  0  0
  7 20  1  0  0  0  0
  8 21  1  0  0  0  0
M  END
