 xtb: 6.7.1 (edcfbbe)
          04112511493D

 21 20  0     0  0            999 V2000
    2.4000    0.6074   -0.6567 C   0  0  0  0  0  0  0  0  0  0  0  0
    1.0762   -0.0923   -0.3361 C   0  0  0  0  0  0  0  0  0  0  0  0
    0.7247   -0.6137   -1.2314 H   0  0  0  0  0  0  0  0  0  0  0  0
    0.0316    0.9404    0.1149 C   0  0  0  0  0  0  0  0  0  0  0  0
   -1.4310    0.4686    0.1566 C   0  0  0  0  0  0  0  0  0  0  0  0
   -1.9171   -0.0182   -1.2076 C   0  0  0  0  0  0  0  0  0  0  0  0
   -1.6613   -0.6053    1.2176 C   0  0  0  0  0  0  0  0  0  0  0  0
    1.2772   -1.1259    0.6124 O   0  0  0  0  0  0  0  0  0  0  0  0
    2.2802    1.2683   -1.5097 H   0  0  0  0  0  0  0  0  0  0  0  0
    2.7353    1.1937    0.1965 H   0  0  0  0  0  0  0  0  0  0  0  0
    3.1591   -0.1346   -0.8927 H   0  0  0  0  0  0  0  0  0  0  0  0
    0.3099    1.2994    1.1096 H   0  0  0  0  0  0  0  0  0  0  0  0
    0.0944    1.7871   -0.5714 H   0  0  0  0  0  0  0  0  0  0  0  0
   -2.0292    1.3475    0.4296 H   0  0  0  0  0  0  0  0  0  0  0  0
   -1.4537   -0.9667   -1.4667 H   0  0  0  0  0  0  0  0  0  0  0  0
   -1.6835    0.7086   -1.9822 H   0  0  0  0  0  0  0  0  0  0  0  0
   -2.9943   -0.1658   -1.1878 H   0  0  0  0  0  0  0  0  0  0  0  0
   -1.0529   -1.4813    1.0089 H   0  0  0  0  0  0  0  0  0  0  0  0
   -1.4018   -0.2305    2.2051 H   0  0  0  0  0  0  0  0  0  0  0  0
   -2.7072   -0.9034    1.2292 H   0  0  0  0  0  0  0  0  0  0  0  0
    1.6402   -0.7356    1.4196 H   0  0  0  0  0  0  0  0  0  0  0  0
  1  2  1  0  0  0  0
  2  3  1  0  0  0  0
  2  4  1  0  0  0  0
  4  5  1  0  0  0  0
  5  6  1  0  0  0  0
  5  7  1  0  0  0  0
  2  8  1  0  0  0  0
  1  9  1  0  0  0  0
  1 10  1  0  0  0  0
  1 11  1  0  0  0  0
  4 12  1  0  0  0  0
  4 13  1  0  0  0  0
  5 14  1  0  0  0  0
  6 15  1  0  0  0  0
  6 16  1  0  0  0  0
  6 17  1  0  0  0  0
  7 18  1  0  0  0  0
  7 19  1  0  0  0  0
  7 20  1  0  0  0  0
  8 21  1  0  0  0  0
M  END
