 xtb: 6.7.1 (edcfbbe)
          04112511193D

 14 13  0     0  0            999 V2000
   -1.1359    0.0492   -0.4634 C   0  0  0  0  0  0  0  0  0  0  0  0
    0.1200    0.5951    0.2573 C   0  0  0  0  0  0  0  0  0  0  0  0
    1.3945   -0.1608   -0.1641 C   0  0  0  0  0  0  0  0  0  0  0  0
    1.2745   -1.5578   -0.0772 O   0  0  0  0  0  0  0  0  0  0  0  0
    0.2823    1.9829    0.0648 O   0  0  0  0  0  0  0  0  0  0  0  0
   -1.8718   -0.8562    0.3235 O   0  0  0  0  0  0  0  0  0  0  0  0
   -0.8432   -0.5123   -1.3536 H   0  0  0  0  0  0  0  0  0  0  0  0
   -1.7621    0.8987   -0.7639 H   0  0  0  0  0  0  0  0  0  0  0  0
   -0.0253    0.4792    1.3383 H   0  0  0  0  0  0  0  0  0  0  0  0
    2.2389    0.2027    0.4377 H   0  0  0  0  0  0  0  0  0  0  0  0
    1.6059    0.0463   -1.2176 H   0  0  0  0  0  0  0  0  0  0  0  0
    1.0636   -1.8116    0.8316 H   0  0  0  0  0  0  0  0  0  0  0  0
    0.4886    2.1614   -0.8635 H   0  0  0  0  0  0  0  0  0  0  0  0
   -2.2779   -0.3844    1.0642 H   0  0  0  0  0  0  0  0  0  0  0  0
  1  2  1  0  0  0  0
  2  3  1  0  0  0  0
  3  4  1  0  0  0  0
  2  5  1  0  0  0  0
  1  6  1  0  0  0  0
  1  7  1  0  0  0  0
  1  8  1  0  0  0  0
  2  9  1  0  0  0  0
  3 10  1  0  0  0  0
  3 11  1  0  0  0  0
  4 12  1  0  0  0  0
  5 13  1  0  0  0  0
  6 14  1  0  0  0  0
M  END
