 xtb: 6.7.1 (edcfbbe)
          04112511553D

 24 24  0     0  0            999 V2000
   -3.5528   -0.0234   -0.3459 C   0  0  0  0  0  0  0  0  0  0  0  0
   -2.2198    0.3955    0.2633 C   0  0  0  0  0  0  0  0  0  0  0  0
   -1.0990   -0.5721   -0.1123 C   0  0  0  0  0  0  0  0  0  0  0  0
    0.2417   -0.2043    0.5234 C   0  0  0  0  0  0  0  0  0  0  0  0
    1.3472   -1.2376    0.2026 C   0  0  0  0  0  0  0  0  0  0  0  0
    2.4626   -0.4656   -0.5095 C   0  0  0  0  0  0  0  0  0  0  0  0
    2.3069    0.9591    0.0119 C   0  0  0  0  0  0  0  0  0  0  0  0
    0.7924    1.1431    0.0266 C   0  0  0  0  0  0  0  0  0  0  0  0
   -4.3373    0.6764   -0.0685 H   0  0  0  0  0  0  0  0  0  0  0  0
   -3.4835   -0.0495   -1.4312 H   0  0  0  0  0  0  0  0  0  0  0  0
   -3.8366   -1.0141    0.0023 H   0  0  0  0  0  0  0  0  0  0  0  0
   -1.9660    1.3999   -0.0799 H   0  0  0  0  0  0  0  0  0  0  0  0
   -2.3132    0.4307    1.3512 H   0  0  0  0  0  0  0  0  0  0  0  0
   -1.3799   -1.5774    0.2122 H   0  0  0  0  0  0  0  0  0  0  0  0
   -0.9882   -0.5931   -1.1994 H   0  0  0  0  0  0  0  0  0  0  0  0
    0.0997   -0.1537    1.6074 H   0  0  0  0  0  0  0  0  0  0  0  0
    1.7268   -1.6788    1.1244 H   0  0  0  0  0  0  0  0  0  0  0  0
    0.9652   -2.0468   -0.4188 H   0  0  0  0  0  0  0  0  0  0  0  0
    3.4481   -0.8833   -0.3086 H   0  0  0  0  0  0  0  0  0  0  0  0
    2.2990   -0.4782   -1.5881 H   0  0  0  0  0  0  0  0  0  0  0  0
    2.7032    1.0309    1.0261 H   0  0  0  0  0  0  0  0  0  0  0  0
    2.8133    1.6949   -0.6113 H   0  0  0  0  0  0  0  0  0  0  0  0
    0.4802    1.9741    0.6571 H   0  0  0  0  0  0  0  0  0  0  0  0
    0.4412    1.3318   -0.9896 H   0  0  0  0  0  0  0  0  0  0  0  0
  1  2  1  0  0  0  0
  2  3  1  0  0  0  0
  3  4  1  0  0  0  0
  4  5  1  0  0  0  0
  5  6  1  0  0  0  0
  6  7  1  0  0  0  0
  4  8  1  0  0  0  0
  7  8  1  0  0  0  0
  1  9  1  0  0  0  0
  1 10  1  0  0  0  0
  1 11  1  0  0  0  0
  2 12  1  0  0  0  0
  2 13  1  0  0  0  0
  3 14  1  0  0  0  0
  3 15  1  0  0  0  0
  4 16  1  0  0  0  0
  5 17  1  0  0  0  0
  5 18  1  0  0  0  0
  6 19  1  0  0  0  0
  6 20  1  0  0  0  0
  7 21  1  0  0  0  0
  7 22  1  0  0  0  0
  8 23  1  0  0  0  0
  8 24  1  0  0  0  0
M  END
