 xtb: 6.7.1 (edcfbbe)
          04112511393D

 22 22  0     0  0            999 V2000
   -4.0804    0.5177    0.9488 C   0  0  0  0  0  0  0  0  0  0  0  0
   -3.4473    0.5193   -0.4348 C   0  0  0  0  0  0  0  0  0  0  0  0
   -2.0207    0.6428   -0.3529 O   0  0  0  0  0  0  0  0  0  0  0  0
   -1.3024   -0.4712   -0.1977 C   0  0  0  0  0  0  0  0  0  0  0  0
   -1.8044   -1.5827   -0.1504 O   0  0  0  0  0  0  0  0  0  0  0  0
    0.1423   -0.2152   -0.1034 C   0  0  0  0  0  0  0  0  0  0  0  0
    0.6683    1.0776   -0.1570 C   0  0  0  0  0  0  0  0  0  0  0  0
    2.0264    1.2766   -0.0635 C   0  0  0  0  0  0  0  0  0  0  0  0
    2.8908    0.1886    0.0857 C   0  0  0  0  0  0  0  0  0  0  0  0
    2.3679   -1.1036    0.1397 C   0  0  0  0  0  0  0  0  0  0  0  0
    1.0075   -1.2993    0.0460 C   0  0  0  0  0  0  0  0  0  0  0  0
    4.2105    0.4401    0.1725 O   0  0  0  0  0  0  0  0  0  0  0  0
   -3.7543   -0.3584    1.5052 H   0  0  0  0  0  0  0  0  0  0  0  0
   -3.7898    1.4115    1.4942 H   0  0  0  0  0  0  0  0  0  0  0  0
   -5.1607    0.4911    0.8501 H   0  0  0  0  0  0  0  0  0  0  0  0
   -3.7647    1.3864   -1.0152 H   0  0  0  0  0  0  0  0  0  0  0  0
   -3.6892   -0.4050   -0.9690 H   0  0  0  0  0  0  0  0  0  0  0  0
    0.0007    1.9159   -0.2721 H   0  0  0  0  0  0  0  0  0  0  0  0
    2.4505    2.2669   -0.1028 H   0  0  0  0  0  0  0  0  0  0  0  0
    3.0270   -1.9508    0.2550 H   0  0  0  0  0  0  0  0  0  0  0  0
    0.5857   -2.2922    0.0860 H   0  0  0  0  0  0  0  0  0  0  0  0
    4.7222   -0.3784    0.2744 H   0  0  0  0  0  0  0  0  0  0  0  0
  1  2  1  0  0  0  0
  2  3  1  0  0  0  0
  3  4  1  0  0  0  0
  4  5  2  0  0  0  0
  4  6  1  0  0  0  0
  6  7  4  0  0  0  0
  7  8  4  0  0  0  0
  8  9  4  0  0  0  0
  9 10  4  0  0  0  0
  6 11  4  0  0  0  0
 10 11  4  0  0  0  0
  9 12  1  0  0  0  0
  1 13  1  0  0  0  0
  1 14  1  0  0  0  0
  1 15  1  0  0  0  0
  2 16  1  0  0  0  0
  2 17  1  0  0  0  0
  7 18  1  0  0  0  0
  8 19  1  0  0  0  0
 10 20  1  0  0  0  0
 11 21  1  0  0  0  0
 12 22  1  0  0  0  0
M  END
