 xtb: 6.7.1 (edcfbbe)
          04112512203D

 18 17  0     0  0            999 V2000
   -1.4474    1.2227   -0.4970 C   0  0  0  0  0  0  0  0  0  0  0  0
   -1.2450    0.3421    0.7316 C   0  0  0  0  0  0  0  0  0  0  0  0
   -0.0916   -0.6668    0.6244 C   0  0  0  0  0  0  0  0  0  0  0  0
   -0.0826   -1.2353    1.5622 H   0  0  0  0  0  0  0  0  0  0  0  0
   -0.2912   -1.6551   -0.5240 C   0  0  0  0  0  0  0  0  0  0  0  0
    1.2884    0.0125    0.5497 C   0  0  0  0  0  0  0  0  0  0  0  0
    1.5822    0.6711   -0.6627 O   0  0  0  0  0  0  0  0  0  0  0  0
   -0.5259    1.7386   -0.7520 H   0  0  0  0  0  0  0  0  0  0  0  0
   -1.7682    0.6339   -1.3523 H   0  0  0  0  0  0  0  0  0  0  0  0
   -2.2146    1.9664   -0.2936 H   0  0  0  0  0  0  0  0  0  0  0  0
   -2.1665   -0.2113    0.9298 H   0  0  0  0  0  0  0  0  0  0  0  0
   -1.0550    0.9828    1.5962 H   0  0  0  0  0  0  0  0  0  0  0  0
   -0.3056   -1.1448   -1.4831 H   0  0  0  0  0  0  0  0  0  0  0  0
   -1.2381   -2.1754   -0.4040 H   0  0  0  0  0  0  0  0  0  0  0  0
    0.5072   -2.3943   -0.5293 H   0  0  0  0  0  0  0  0  0  0  0  0
    2.0630   -0.7403    0.7552 H   0  0  0  0  0  0  0  0  0  0  0  0
    1.3556    0.7855    1.3198 H   0  0  0  0  0  0  0  0  0  0  0  0
    1.6086    0.0148   -1.3720 H   0  0  0  0  0  0  0  0  0  0  0  0
  1  2  1  0  0  0  0
  2  3  1  0  0  0  0
  3  4  1  0  0  0  0
  3  5  1  0  0  0  0
  3  6  1  0  0  0  0
  6  7  1  0  0  0  0
  1  8  1  0  0  0  0
  1  9  1  0  0  0  0
  1 10  1  0  0  0  0
  2 11  1  0  0  0  0
  2 12  1  0  0  0  0
  5 13  1  0  0  0  0
  5 14  1  0  0  0  0
  5 15  1  0  0  0  0
  6 16  1  0  0  0  0
  6 17  1  0  0  0  0
  7 18  1  0  0  0  0
M  END
