 xtb: 6.7.1 (edcfbbe)
          04112511023D

 15 14  0     0  0            999 V2000
   -1.8679    0.8132    0.1473 C   0  0  0  0  0  0  0  0  0  0  0  0
   -1.1674   -0.4054   -0.4468 C   0  0  0  0  0  0  0  0  0  0  0  0
    0.0343   -0.8919    0.3806 C   0  0  0  0  0  0  0  0  0  0  0  0
    1.2978   -0.4932   -0.1229 O   0  0  0  0  0  0  0  0  0  0  0  0
    1.5895    0.8817    0.0129 C   0  0  0  0  0  0  0  0  0  0  0  0
   -1.1968    1.6647    0.2198 H   0  0  0  0  0  0  0  0  0  0  0  0
   -2.7129    1.0961   -0.4758 H   0  0  0  0  0  0  0  0  0  0  0  0
   -2.2392    0.5835    1.1436 H   0  0  0  0  0  0  0  0  0  0  0  0
   -0.8170   -0.1852   -1.4571 H   0  0  0  0  0  0  0  0  0  0  0  0
   -1.8885   -1.2202   -0.5202 H   0  0  0  0  0  0  0  0  0  0  0  0
   -0.0663   -0.5615    1.4244 H   0  0  0  0  0  0  0  0  0  0  0  0
    0.0868   -1.9827    0.3630 H   0  0  0  0  0  0  0  0  0  0  0  0
    0.9766    1.4917   -0.6570 H   0  0  0  0  0  0  0  0  0  0  0  0
    2.6372    0.9933   -0.2579 H   0  0  0  0  0  0  0  0  0  0  0  0
    1.4391    1.2116    1.0465 H   0  0  0  0  0  0  0  0  0  0  0  0
  1  2  1  0  0  0  0
  2  3  1  0  0  0  0
  3  4  1  0  0  0  0
  4  5  1  0  0  0  0
  1  6  1  0  0  0  0
  1  7  1  0  0  0  0
  1  8  1  0  0  0  0
  2  9  1  0  0  0  0
  2 10  1  0  0  0  0
  3 11  1  0  0  0  0
  3 12  1  0  0  0  0
  5 13  1  0  0  0  0
  5 14  1  0  0  0  0
  5 15  1  0  0  0  0
M  END
