 xtb: 6.7.1 (edcfbbe)
          04112512013D

 22 22  0     0  0            999 V2000
    2.7802   -0.7402    1.7339 C   0  0  0  0  0  0  0  0  0  0  0  0
    3.2475   -1.1419    0.3346 C   0  0  0  0  0  0  0  0  0  0  0  0
    3.3229    0.0350   -0.6061 C   0  0  0  0  0  0  0  0  0  0  0  0
    4.3872    0.3765   -1.1122 O   0  0  0  0  0  0  0  0  0  0  0  0
    2.2231    0.7892   -0.8726 N   0  0  0  0  0  0  0  0  0  0  0  0
    0.8738    0.7067   -0.5335 C   0  0  0  0  0  0  0  0  0  0  0  0
    0.1539    1.9021   -0.4520 C   0  0  0  0  0  0  0  0  0  0  0  0
   -1.1906    1.9015   -0.1436 C   0  0  0  0  0  0  0  0  0  0  0  0
   -1.8520    0.7038    0.0839 C   0  0  0  0  0  0  0  0  0  0  0  0
   -1.1507   -0.4905   -0.0196 C   0  0  0  0  0  0  0  0  0  0  0  0
    0.1982   -0.4948   -0.3320 C   0  0  0  0  0  0  0  0  0  0  0  0
   -1.9622   -2.0021    0.2307 Cl  0  0  0  0  0  0  0  0  0  0  0  0
   -3.5407    0.7006    0.4788 Cl  0  0  0  0  0  0  0  0  0  0  0  0
    3.4295    0.0330    2.1370 H   0  0  0  0  0  0  0  0  0  0  0  0
    2.8268   -1.6039    2.3911 H   0  0  0  0  0  0  0  0  0  0  0  0
    1.7599   -0.3683    1.7234 H   0  0  0  0  0  0  0  0  0  0  0  0
    2.6038   -1.9163   -0.0794 H   0  0  0  0  0  0  0  0  0  0  0  0
    4.2594   -1.5480    0.3909 H   0  0  0  0  0  0  0  0  0  0  0  0
    2.4657    1.6320   -1.3858 H   0  0  0  0  0  0  0  0  0  0  0  0
    0.6549    2.8406   -0.6259 H   0  0  0  0  0  0  0  0  0  0  0  0
   -1.7372    2.8271   -0.0753 H   0  0  0  0  0  0  0  0  0  0  0  0
    0.6948   -1.4426   -0.4324 H   0  0  0  0  0  0  0  0  0  0  0  0
  1  2  1  0  0  0  0
  2  3  1  0  0  0  0
  3  4  2  0  0  0  0
  3  5  4  0  0  0  0
  5  6  1  0  0  0  0
  6  7  4  0  0  0  0
  7  8  4  0  0  0  0
  8  9  4  0  0  0  0
  9 10  4  0  0  0  0
  6 11  4  0  0  0  0
 10 11  4  0  0  0  0
 10 12  1  0  0  0  0
  9 13  1  0  0  0  0
  1 14  1  0  0  0  0
  1 15  1  0  0  0  0
  1 16  1  0  0  0  0
  2 17  1  0  0  0  0
  2 18  1  0  0  0  0
  5 19  1  0  0  0  0
  7 20  1  0  0  0  0
  8 21  1  0  0  0  0
 11 22  1  0  0  0  0
M  END
