 xtb: 6.7.1 (edcfbbe)
          04112511503D

 17 16  0     0  0            999 V2000
    1.8950   -0.6591    0.3306 C   0  0  0  0  0  0  0  0  0  0  0  0
    1.1090    0.1937   -0.6590 C   0  0  0  0  0  0  0  0  0  0  0  0
    0.0000    1.0166   -0.0004 C   0  0  0  0  0  0  0  0  0  0  0  0
   -1.1092    0.1945    0.6588 C   0  0  0  0  0  0  0  0  0  0  0  0
   -1.8949   -0.6594   -0.3301 C   0  0  0  0  0  0  0  0  0  0  0  0
    2.2878   -0.0418    1.1358 H   0  0  0  0  0  0  0  0  0  0  0  0
    2.7305   -1.1426   -0.1703 H   0  0  0  0  0  0  0  0  0  0  0  0
    1.2679   -1.4333    0.7645 H   0  0  0  0  0  0  0  0  0  0  0  0
    1.7968    0.8860   -1.1510 H   0  0  0  0  0  0  0  0  0  0  0  0
    0.6835   -0.4459   -1.4336 H   0  0  0  0  0  0  0  0  0  0  0  0
   -0.4494    1.6624   -0.7591 H   0  0  0  0  0  0  0  0  0  0  0  0
    0.4496    1.6631    0.7577 H   0  0  0  0  0  0  0  0  0  0  0  0
   -0.6840   -0.4442    1.4344 H   0  0  0  0  0  0  0  0  0  0  0  0
   -1.7971    0.8874    1.1498 H   0  0  0  0  0  0  0  0  0  0  0  0
   -2.2855   -0.0433   -1.1373 H   0  0  0  0  0  0  0  0  0  0  0  0
   -2.7319   -1.1407    0.1705 H   0  0  0  0  0  0  0  0  0  0  0  0
   -1.2681   -1.4355   -0.7612 H   0  0  0  0  0  0  0  0  0  0  0  0
  1  2  1  0  0  0  0
  2  3  1  0  0  0  0
  3  4  1  0  0  0  0
  4  5  1  0  0  0  0
  1  6  1  0  0  0  0
  1  7  1  0  0  0  0
  1  8  1  0  0  0  0
  2  9  1  0  0  0  0
  2 10  1  0  0  0  0
  3 11  1  0  0  0  0
  3 12  1  0  0  0  0
  4 13  1  0  0  0  0
  4 14  1  0  0  0  0
  5 15  1  0  0  0  0
  5 16  1  0  0  0  0
  5 17  1  0  0  0  0
M  END
