 xtb: 6.7.1 (edcfbbe)
          04082510373D

 16 15  0     0  0            999 V2000
   -2.2114    0.6933   -0.1232 C   0  0  0  0  0  0  0  0  0  0  0  0
   -1.5007   -0.5258    0.4509 C   0  0  0  0  0  0  0  0  0  0  0  0
   -0.2356   -0.9041   -0.3336 C   0  0  0  0  0  0  0  0  0  0  0  0
    0.9205    0.0382   -0.0860 C   0  0  0  0  0  0  0  0  0  0  0  0
    0.8113    1.2481   -0.1273 O   0  0  0  0  0  0  0  0  0  0  0  0
    2.2277   -0.6340    0.2166 C   0  0  0  0  0  0  0  0  0  0  0  0
   -3.0819    0.9418    0.4791 H   0  0  0  0  0  0  0  0  0  0  0  0
   -2.5399    0.4990   -1.1419 H   0  0  0  0  0  0  0  0  0  0  0  0
   -1.5422    1.5498   -0.1341 H   0  0  0  0  0  0  0  0  0  0  0  0
   -2.1810   -1.3793    0.4360 H   0  0  0  0  0  0  0  0  0  0  0  0
   -1.2302   -0.3313    1.4912 H   0  0  0  0  0  0  0  0  0  0  0  0
    0.0664   -1.9196   -0.0814 H   0  0  0  0  0  0  0  0  0  0  0  0
   -0.4631   -0.8669   -1.4020 H   0  0  0  0  0  0  0  0  0  0  0  0
    2.1350   -1.1795    1.1532 H   0  0  0  0  0  0  0  0  0  0  0  0
    3.0236    0.1009    0.3007 H   0  0  0  0  0  0  0  0  0  0  0  0
    2.4608   -1.3501   -0.5672 H   0  0  0  0  0  0  0  0  0  0  0  0
  1  2  1  0  0  0  0
  2  3  1  0  0  0  0
  3  4  1  0  0  0  0
  4  5  2  0  0  0  0
  4  6  1  0  0  0  0
  1  7  1  0  0  0  0
  1  8  1  0  0  0  0
  1  9  1  0  0  0  0
  2 10  1  0  0  0  0
  2 11  1  0  0  0  0
  3 12  1  0  0  0  0
  3 13  1  0  0  0  0
  6 14  1  0  0  0  0
  6 15  1  0  0  0  0
  6 16  1  0  0  0  0
M  END
