 xtb: 6.7.1 (edcfbbe)
          04112511493D

 17 16  0     0  0            999 V2000
   -2.2022    0.8851    0.7308 C   0  0  0  0  0  0  0  0  0  0  0  0
   -1.8076    0.3821   -0.6525 C   0  0  0  0  0  0  0  0  0  0  0  0
   -0.9166   -0.8644   -0.5715 C   0  0  0  0  0  0  0  0  0  0  0  0
    0.4069   -0.5450    0.0723 C   0  0  0  0  0  0  0  0  0  0  0  0
    0.8075   -1.0117    1.1187 O   0  0  0  0  0  0  0  0  0  0  0  0
    1.1074    0.3255   -0.6464 O   0  0  0  0  0  0  0  0  0  0  0  0
    2.3819    0.7266   -0.1405 C   0  0  0  0  0  0  0  0  0  0  0  0
   -2.8238    1.7727    0.6491 H   0  0  0  0  0  0  0  0  0  0  0  0
   -2.7579    0.1216    1.2701 H   0  0  0  0  0  0  0  0  0  0  0  0
   -1.3193    1.1347    1.3164 H   0  0  0  0  0  0  0  0  0  0  0  0
   -1.2725    1.1640   -1.1931 H   0  0  0  0  0  0  0  0  0  0  0  0
   -2.7059    0.1293   -1.2166 H   0  0  0  0  0  0  0  0  0  0  0  0
   -0.7185   -1.2331   -1.5784 H   0  0  0  0  0  0  0  0  0  0  0  0
   -1.4011   -1.6445    0.0153 H   0  0  0  0  0  0  0  0  0  0  0  0
    2.7705    1.4416   -0.8587 H   0  0  0  0  0  0  0  0  0  0  0  0
    3.0386   -0.1400   -0.0549 H   0  0  0  0  0  0  0  0  0  0  0  0
    2.2677    1.1819    0.8441 H   0  0  0  0  0  0  0  0  0  0  0  0
  1  2  1  0  0  0  0
  2  3  1  0  0  0  0
  3  4  1  0  0  0  0
  4  5  2  0  0  0  0
  4  6  1  0  0  0  0
  6  7  1  0  0  0  0
  1  8  1  0  0  0  0
  1  9  1  0  0  0  0
  1 10  1  0  0  0  0
  2 11  1  0  0  0  0
  2 12  1  0  0  0  0
  3 13  1  0  0  0  0
  3 14  1  0  0  0  0
  7 15  1  0  0  0  0
  7 16  1  0  0  0  0
  7 17  1  0  0  0  0
M  END
