 xtb: 6.7.1 (edcfbbe)
          04112511193D

 14 13  0     0  0            999 V2000
   -1.2602    0.2461   -0.2120 C   0  0  0  0  0  0  0  0  0  0  0  0
    0.1368    0.6664    0.2867 C   0  0  0  0  0  0  0  0  0  0  0  0
    1.2306   -0.2120   -0.3417 C   0  0  0  0  0  0  0  0  0  0  0  0
    1.1868   -1.5432    0.1032 O   0  0  0  0  0  0  0  0  0  0  0  0
    0.4228    1.9985   -0.0746 O   0  0  0  0  0  0  0  0  0  0  0  0
   -1.6005   -1.0694    0.1637 O   0  0  0  0  0  0  0  0  0  0  0  0
   -1.2676    0.2639   -1.3051 H   0  0  0  0  0  0  0  0  0  0  0  0
   -2.0103    0.9610    0.1483 H   0  0  0  0  0  0  0  0  0  0  0  0
    0.1883    0.5420    1.3803 H   0  0  0  0  0  0  0  0  0  0  0  0
    2.2077    0.1831   -0.0542 H   0  0  0  0  0  0  0  0  0  0  0  0
    1.1435   -0.1552   -1.4351 H   0  0  0  0  0  0  0  0  0  0  0  0
    0.2962   -1.8913   -0.0770 H   0  0  0  0  0  0  0  0  0  0  0  0
   -0.2027    2.5976    0.3575 H   0  0  0  0  0  0  0  0  0  0  0  0
   -1.7764   -1.1000    1.1148 H   0  0  0  0  0  0  0  0  0  0  0  0
  1  2  1  0  0  0  0
  2  3  1  0  0  0  0
  3  4  1  0  0  0  0
  2  5  1  0  0  0  0
  1  6  1  0  0  0  0
  1  7  1  0  0  0  0
  1  8  1  0  0  0  0
  2  9  1  0  0  0  0
  3 10  1  0  0  0  0
  3 11  1  0  0  0  0
  4 12  1  0  0  0  0
  5 13  1  0  0  0  0
  6 14  1  0  0  0  0
M  END
