 xtb: 6.7.1 (edcfbbe)
          04112511213D

 14 13  0     0  0            999 V2000
   -2.7064    0.3822   -0.5552 C   0  0  0  0  0  0  0  0  0  0  0  0
   -1.9940   -0.2650    0.6274 C   0  0  0  0  0  0  0  0  0  0  0  0
   -0.5264    0.1543    0.7519 C   0  0  0  0  0  0  0  0  0  0  0  0
    0.3133   -0.3705   -0.3996 C   0  0  0  0  0  0  0  0  0  0  0  0
    2.0487    0.0353   -0.1494 Cl  0  0  0  0  0  0  0  0  0  0  0  0
   -2.6078    1.4642   -0.5126 H   0  0  0  0  0  0  0  0  0  0  0  0
   -2.2970    0.0338   -1.4992 H   0  0  0  0  0  0  0  0  0  0  0  0
   -3.7646    0.1343   -0.5340 H   0  0  0  0  0  0  0  0  0  0  0  0
   -2.0530   -1.3512    0.5394 H   0  0  0  0  0  0  0  0  0  0  0  0
   -2.5048    0.0220    1.5479 H   0  0  0  0  0  0  0  0  0  0  0  0
   -0.4574    1.2430    0.7842 H   0  0  0  0  0  0  0  0  0  0  0  0
   -0.1227   -0.2356    1.6881 H   0  0  0  0  0  0  0  0  0  0  0  0
    0.0365    0.0826   -1.3487 H   0  0  0  0  0  0  0  0  0  0  0  0
    0.2622   -1.4557   -0.4696 H   0  0  0  0  0  0  0  0  0  0  0  0
  1  2  1  0  0  0  0
  2  3  1  0  0  0  0
  3  4  1  0  0  0  0
  4  5  1  0  0  0  0
  1  6  1  0  0  0  0
  1  7  1  0  0  0  0
  1  8  1  0  0  0  0
  2  9  1  0  0  0  0
  2 10  1  0  0  0  0
  3 11  1  0  0  0  0
  3 12  1  0  0  0  0
  4 13  1  0  0  0  0
  4 14  1  0  0  0  0
M  END
