 xtb: 6.7.1 (edcfbbe)
          04112512223D

 23 22  0     0  0            999 V2000
   -1.6577    0.9802   -0.9920 C   0  0  0  0  0  0  0  0  0  0  0  0
   -1.2793    0.1506    0.2331 C   0  0  0  0  0  0  0  0  0  0  0  0
   -2.4243   -0.7977    0.5895 C   0  0  0  0  0  0  0  0  0  0  0  0
   -0.0000   -0.6621    0.0003 C   0  0  0  0  0  0  0  0  0  0  0  0
    1.2792    0.1505   -0.2332 C   0  0  0  0  0  0  0  0  0  0  0  0
    1.6579    0.9809    0.9913 C   0  0  0  0  0  0  0  0  0  0  0  0
    2.4242   -0.7981   -0.5891 C   0  0  0  0  0  0  0  0  0  0  0  0
   -2.6066    1.4855   -0.8256 H   0  0  0  0  0  0  0  0  0  0  0  0
   -0.9062    1.7362   -1.2030 H   0  0  0  0  0  0  0  0  0  0  0  0
   -1.7590    0.3394   -1.8655 H   0  0  0  0  0  0  0  0  0  0  0  0
   -1.1246    0.8268    1.0798 H   0  0  0  0  0  0  0  0  0  0  0  0
   -2.6111   -1.4898   -0.2291 H   0  0  0  0  0  0  0  0  0  0  0  0
   -2.1831   -1.3755    1.4790 H   0  0  0  0  0  0  0  0  0  0  0  0
   -3.3375   -0.2391    0.7814 H   0  0  0  0  0  0  0  0  0  0  0  0
   -0.1613   -1.3100   -0.8655 H   0  0  0  0  0  0  0  0  0  0  0  0
    0.1615   -1.3092    0.8666 H   0  0  0  0  0  0  0  0  0  0  0  0
    1.1246    0.8263   -1.0802 H   0  0  0  0  0  0  0  0  0  0  0  0
    2.6064    1.4864    0.8244 H   0  0  0  0  0  0  0  0  0  0  0  0
    0.9062    1.7367    1.2022 H   0  0  0  0  0  0  0  0  0  0  0  0
    1.7597    0.3406    1.8652 H   0  0  0  0  0  0  0  0  0  0  0  0
    2.1844   -1.3733   -1.4804 H   0  0  0  0  0  0  0  0  0  0  0  0
    3.3385   -0.2401   -0.7775 H   0  0  0  0  0  0  0  0  0  0  0  0
    2.6084   -1.4923    0.2283 H   0  0  0  0  0  0  0  0  0  0  0  0
  1  2  1  0  0  0  0
  2  3  1  0  0  0  0
  2  4  1  0  0  0  0
  4  5  1  0  0  0  0
  5  6  1  0  0  0  0
  5  7  1  0  0  0  0
  1  8  1  0  0  0  0
  1  9  1  0  0  0  0
  1 10  1  0  0  0  0
  2 11  1  0  0  0  0
  3 12  1  0  0  0  0
  3 13  1  0  0  0  0
  3 14  1  0  0  0  0
  4 15  1  0  0  0  0
  4 16  1  0  0  0  0
  5 17  1  0  0  0  0
  6 18  1  0  0  0  0
  6 19  1  0  0  0  0
  6 20  1  0  0  0  0
  7 21  1  0  0  0  0
  7 22  1  0  0  0  0
  7 23  1  0  0  0  0
M  END
