 xtb: 6.7.1 (edcfbbe)
          04112511103D

 18 17  0     0  0            999 V2000
    2.2472   -1.0214    0.3402 C   0  0  0  0  0  0  0  0  0  0  0  0
    1.6187    0.0340   -0.5640 C   0  0  0  0  0  0  0  0  0  0  0  0
    0.4470    0.7764    0.0927 C   0  0  0  0  0  0  0  0  0  0  0  0
   -0.9370    0.2534   -0.3173 C   0  0  0  0  0  0  0  0  0  0  0  0
   -1.0203    0.2934   -1.4173 H   0  0  0  0  0  0  0  0  0  0  0  0
   -1.1996   -1.1764    0.1416 C   0  0  0  0  0  0  0  0  0  0  0  0
   -1.9643    1.0564    0.2487 O   0  0  0  0  0  0  0  0  0  0  0  0
    1.5196   -1.7705    0.6374 H   0  0  0  0  0  0  0  0  0  0  0  0
    2.6469   -0.5573    1.2390 H   0  0  0  0  0  0  0  0  0  0  0  0
    3.0630   -1.5209   -0.1774 H   0  0  0  0  0  0  0  0  0  0  0  0
    2.3920    0.7570   -0.8306 H   0  0  0  0  0  0  0  0  0  0  0  0
    1.2780   -0.4319   -1.4910 H   0  0  0  0  0  0  0  0  0  0  0  0
    0.5302    0.7196    1.1797 H   0  0  0  0  0  0  0  0  0  0  0  0
    0.4929    1.8328   -0.1845 H   0  0  0  0  0  0  0  0  0  0  0  0
   -1.0456   -1.2540    1.2145 H   0  0  0  0  0  0  0  0  0  0  0  0
   -2.2330   -1.4341   -0.0762 H   0  0  0  0  0  0  0  0  0  0  0  0
   -0.5453   -1.8689   -0.3766 H   0  0  0  0  0  0  0  0  0  0  0  0
   -1.8319    1.9785   -0.0083 H   0  0  0  0  0  0  0  0  0  0  0  0
  1  2  1  0  0  0  0
  2  3  1  0  0  0  0
  3  4  1  0  0  0  0
  4  5  1  0  0  0  0
  4  6  1  0  0  0  0
  4  7  1  0  0  0  0
  1  8  1  0  0  0  0
  1  9  1  0  0  0  0
  1 10  1  0  0  0  0
  2 11  1  0  0  0  0
  2 12  1  0  0  0  0
  3 13  1  0  0  0  0
  3 14  1  0  0  0  0
  6 15  1  0  0  0  0
  6 16  1  0  0  0  0
  6 17  1  0  0  0  0
  7 18  1  0  0  0  0
M  END
