 xtb: 6.7.1 (edcfbbe)
          04112511583D

 18 17  0     0  0            999 V2000
   -1.7662    0.9753   -0.3422 C   0  0  0  0  0  0  0  0  0  0  0  0
   -1.0530    0.2102    0.7688 C   0  0  0  0  0  0  0  0  0  0  0  0
    0.1335   -0.6497    0.3015 C   0  0  0  0  0  0  0  0  0  0  0  0
    1.1974    0.1216   -0.4908 C   0  0  0  0  0  0  0  0  0  0  0  0
    1.8636    1.2283    0.3171 C   0  0  0  0  0  0  0  0  0  0  0  0
   -0.3053   -1.7839   -0.4306 O   0  0  0  0  0  0  0  0  0  0  0  0
   -2.1231    0.3011   -1.1173 H   0  0  0  0  0  0  0  0  0  0  0  0
   -2.6277    1.4943    0.0706 H   0  0  0  0  0  0  0  0  0  0  0  0
   -1.1115    1.7153   -0.7943 H   0  0  0  0  0  0  0  0  0  0  0  0
   -0.6937    0.9105    1.5228 H   0  0  0  0  0  0  0  0  0  0  0  0
   -1.7642   -0.4628    1.2535 H   0  0  0  0  0  0  0  0  0  0  0  0
    0.6062   -1.0818    1.1928 H   0  0  0  0  0  0  0  0  0  0  0  0
    1.9529   -0.6025   -0.8055 H   0  0  0  0  0  0  0  0  0  0  0  0
    0.7475    0.5404   -1.3929 H   0  0  0  0  0  0  0  0  0  0  0  0
    2.6756    1.6684   -0.2561 H   0  0  0  0  0  0  0  0  0  0  0  0
    1.1551    2.0143    0.5631 H   0  0  0  0  0  0  0  0  0  0  0  0
    2.2723    0.8296    1.2426 H   0  0  0  0  0  0  0  0  0  0  0  0
   -0.7164   -1.4795   -1.2514 H   0  0  0  0  0  0  0  0  0  0  0  0
  1  2  1  0  0  0  0
  2  3  1  0  0  0  0
  3  4  1  0  0  0  0
  4  5  1  0  0  0  0
  3  6  1  0  0  0  0
  1  7  1  0  0  0  0
  1  8  1  0  0  0  0
  1  9  1  0  0  0  0
  2 10  1  0  0  0  0
  2 11  1  0  0  0  0
  3 12  1  0  0  0  0
  4 13  1  0  0  0  0
  4 14  1  0  0  0  0
  5 15  1  0  0  0  0
  5 16  1  0  0  0  0
  5 17  1  0  0  0  0
  6 18  1  0  0  0  0
M  END
