 xtb: 6.7.1 (edcfbbe)
          04112511193D

 14 13  0     0  0            999 V2000
   -1.4563    0.1840    0.5847 C   0  0  0  0  0  0  0  0  0  0  0  0
    0.0610    0.3841    0.5221 C   0  0  0  0  0  0  0  0  0  0  0  0
    0.7584   -0.9057    0.0537 C   0  0  0  0  0  0  0  0  0  0  0  0
    2.1586   -0.7507   -0.0378 O   0  0  0  0  0  0  0  0  0  0  0  0
    0.3282    1.4679   -0.3451 O   0  0  0  0  0  0  0  0  0  0  0  0
   -1.9132   -0.4250   -0.6016 O   0  0  0  0  0  0  0  0  0  0  0  0
   -1.9132    1.1712    0.7177 H   0  0  0  0  0  0  0  0  0  0  0  0
   -1.6897   -0.4466    1.4525 H   0  0  0  0  0  0  0  0  0  0  0  0
    0.4123    0.6324    1.5349 H   0  0  0  0  0  0  0  0  0  0  0  0
    0.3277   -1.2125   -0.9029 H   0  0  0  0  0  0  0  0  0  0  0  0
    0.5785   -1.6888    0.7929 H   0  0  0  0  0  0  0  0  0  0  0  0
    2.3764   -0.3356   -0.8833 H   0  0  0  0  0  0  0  0  0  0  0  0
    1.2729    1.6728   -0.3018 H   0  0  0  0  0  0  0  0  0  0  0  0
   -2.8798   -0.4092   -0.6139 H   0  0  0  0  0  0  0  0  0  0  0  0
  1  2  1  0  0  0  0
  2  3  1  0  0  0  0
  3  4  1  0  0  0  0
  2  5  1  0  0  0  0
  1  6  1  0  0  0  0
  1  7  1  0  0  0  0
  1  8  1  0  0  0  0
  2  9  1  0  0  0  0
  3 10  1  0  0  0  0
  3 11  1  0  0  0  0
  4 12  1  0  0  0  0
  5 13  1  0  0  0  0
  6 14  1  0  0  0  0
M  END
