 xtb: 6.7.1 (edcfbbe)
          04072507453D

 21 20  0     0  0            999 V2000
    1.8574   -1.2013   -0.0193 C   0  0  0  0  0  0  0  0  0  0  0  0
    1.2016    0.1298    0.3572 C   0  0  0  0  0  0  0  0  0  0  0  0
    2.1274    1.2964    0.0118 C   0  0  0  0  0  0  0  0  0  0  0  0
   -0.0159    0.3448   -0.3466 O   0  0  0  0  0  0  0  0  0  0  0  0
   -1.2333   -0.0326    0.2837 C   0  0  0  0  0  0  0  0  0  0  0  0
   -2.3023    0.9478   -0.1982 C   0  0  0  0  0  0  0  0  0  0  0  0
   -1.6375   -1.4715   -0.0482 C   0  0  0  0  0  0  0  0  0  0  0  0
    2.8355   -1.2710    0.4475 H   0  0  0  0  0  0  0  0  0  0  0  0
    1.2552   -2.0437    0.3087 H   0  0  0  0  0  0  0  0  0  0  0  0
    1.9723   -1.2548   -1.0986 H   0  0  0  0  0  0  0  0  0  0  0  0
    0.9945    0.1397    1.4400 H   0  0  0  0  0  0  0  0  0  0  0  0
    3.0669    1.2006    0.5469 H   0  0  0  0  0  0  0  0  0  0  0  0
    1.6559    2.2377    0.2806 H   0  0  0  0  0  0  0  0  0  0  0  0
    2.3194    1.3000   -1.0574 H   0  0  0  0  0  0  0  0  0  0  0  0
   -1.1155    0.0677    1.3757 H   0  0  0  0  0  0  0  0  0  0  0  0
   -3.2508    0.7342    0.2845 H   0  0  0  0  0  0  0  0  0  0  0  0
   -2.0030    1.9663    0.0336 H   0  0  0  0  0  0  0  0  0  0  0  0
   -2.4161    0.8583   -1.2747 H   0  0  0  0  0  0  0  0  0  0  0  0
   -0.9438   -2.1851    0.3875 H   0  0  0  0  0  0  0  0  0  0  0  0
   -1.6455   -1.6054   -1.1267 H   0  0  0  0  0  0  0  0  0  0  0  0
   -2.6307   -1.6710    0.3432 H   0  0  0  0  0  0  0  0  0  0  0  0
  1  2  1  0  0  0  0
  2  3  1  0  0  0  0
  2  4  1  0  0  0  0
  4  5  1  0  0  0  0
  5  6  1  0  0  0  0
  5  7  1  0  0  0  0
  1  8  1  0  0  0  0
  1  9  1  0  0  0  0
  1 10  1  0  0  0  0
  2 11  1  0  0  0  0
  3 12  1  0  0  0  0
  3 13  1  0  0  0  0
  3 14  1  0  0  0  0
  5 15  1  0  0  0  0
  6 16  1  0  0  0  0
  6 17  1  0  0  0  0
  6 18  1  0  0  0  0
  7 19  1  0  0  0  0
  7 20  1  0  0  0  0
  7 21  1  0  0  0  0
M  END
