 xtb: 6.7.1 (edcfbbe)
          04112512013D

 22 22  0     0  0            999 V2000
    4.2293    1.6479   -0.1418 C   0  0  0  0  0  0  0  0  0  0  0  0
    3.5192    0.6091    0.7305 C   0  0  0  0  0  0  0  0  0  0  0  0
    3.3074   -0.6693   -0.0406 C   0  0  0  0  0  0  0  0  0  0  0  0
    4.2323   -1.4337   -0.2915 O   0  0  0  0  0  0  0  0  0  0  0  0
    2.0546   -1.0102   -0.4439 N   0  0  0  0  0  0  0  0  0  0  0  0
    0.8213   -0.3711   -0.3037 C   0  0  0  0  0  0  0  0  0  0  0  0
    0.6500    1.0038   -0.4558 C   0  0  0  0  0  0  0  0  0  0  0  0
   -0.6031    1.5714   -0.3203 C   0  0  0  0  0  0  0  0  0  0  0  0
   -1.7076    0.7802   -0.0486 C   0  0  0  0  0  0  0  0  0  0  0  0
   -1.5495   -0.5960    0.0735 C   0  0  0  0  0  0  0  0  0  0  0  0
   -0.2976   -1.1677   -0.0545 C   0  0  0  0  0  0  0  0  0  0  0  0
   -2.9219   -1.6077    0.3881 Cl  0  0  0  0  0  0  0  0  0  0  0  0
   -3.2762    1.4996    0.1174 Cl  0  0  0  0  0  0  0  0  0  0  0  0
    4.4254    2.5460    0.4363 H   0  0  0  0  0  0  0  0  0  0  0  0
    3.6313    1.9124   -1.0104 H   0  0  0  0  0  0  0  0  0  0  0  0
    5.1753    1.2438   -0.4947 H   0  0  0  0  0  0  0  0  0  0  0  0
    2.5784    0.9925    1.1189 H   0  0  0  0  0  0  0  0  0  0  0  0
    4.1741    0.3593    1.5677 H   0  0  0  0  0  0  0  0  0  0  0  0
    2.0062   -1.9548   -0.8127 H   0  0  0  0  0  0  0  0  0  0  0  0
    1.4832    1.6350   -0.7098 H   0  0  0  0  0  0  0  0  0  0  0  0
   -0.7330    2.6343   -0.4365 H   0  0  0  0  0  0  0  0  0  0  0  0
   -0.1948   -2.2358    0.0455 H   0  0  0  0  0  0  0  0  0  0  0  0
  1  2  1  0  0  0  0
  2  3  1  0  0  0  0
  3  4  2  0  0  0  0
  3  5  4  0  0  0  0
  5  6  1  0  0  0  0
  6  7  4  0  0  0  0
  7  8  4  0  0  0  0
  8  9  4  0  0  0  0
  9 10  4  0  0  0  0
  6 11  4  0  0  0  0
 10 11  4  0  0  0  0
 10 12  1  0  0  0  0
  9 13  1  0  0  0  0
  1 14  1  0  0  0  0
  1 15  1  0  0  0  0
  1 16  1  0  0  0  0
  2 17  1  0  0  0  0
  2 18  1  0  0  0  0
  5 19  1  0  0  0  0
  7 20  1  0  0  0  0
  8 21  1  0  0  0  0
 11 22  1  0  0  0  0
M  END
