 xtb: 6.7.1 (edcfbbe)
          04112511403D

 21 21  0     0  0            999 V2000
   -3.6004    0.1155    0.0058 C   0  0  0  0  0  0  0  0  0  0  0  0
   -2.3367    0.7501   -0.0006 O   0  0  0  0  0  0  0  0  0  0  0  0
   -1.2187   -0.0366   -0.0015 C   0  0  0  0  0  0  0  0  0  0  0  0
   -1.2153   -1.4263   -0.0014 C   0  0  0  0  0  0  0  0  0  0  0  0
   -0.0168   -2.1161   -0.0017 C   0  0  0  0  0  0  0  0  0  0  0  0
    1.1940   -1.4481   -0.0015 C   0  0  0  0  0  0  0  0  0  0  0  0
    1.2047   -0.0611   -0.0016 C   0  0  0  0  0  0  0  0  0  0  0  0
    0.0008    0.6507   -0.0020 C   0  0  0  0  0  0  0  0  0  0  0  0
   -0.0057    2.0161   -0.0026 O   0  0  0  0  0  0  0  0  0  0  0  0
    2.3323    0.7283   -0.0010 O   0  0  0  0  0  0  0  0  0  0  0  0
    3.5947    0.0921    0.0062 C   0  0  0  0  0  0  0  0  0  0  0  0
   -4.3244    0.9271    0.0087 H   0  0  0  0  0  0  0  0  0  0  0  0
   -3.7304   -0.4972    0.9018 H   0  0  0  0  0  0  0  0  0  0  0  0
   -3.7391   -0.4986   -0.8880 H   0  0  0  0  0  0  0  0  0  0  0  0
   -2.1421   -1.9743   -0.0013 H   0  0  0  0  0  0  0  0  0  0  0  0
   -0.0270   -3.1943   -0.0018 H   0  0  0  0  0  0  0  0  0  0  0  0
    2.1140   -2.0075   -0.0013 H   0  0  0  0  0  0  0  0  0  0  0  0
    0.9154    2.3248   -0.0034 H   0  0  0  0  0  0  0  0  0  0  0  0
    3.7216   -0.5201    0.9024 H   0  0  0  0  0  0  0  0  0  0  0  0
    4.3215    0.9012    0.0083 H   0  0  0  0  0  0  0  0  0  0  0  0
    3.7304   -0.5233   -0.8866 H   0  0  0  0  0  0  0  0  0  0  0  0
  1  2  1  0  0  0  0
  2  3  1  0  0  0  0
  3  4  4  0  0  0  0
  4  5  4  0  0  0  0
  5  6  4  0  0  0  0
  6  7  4  0  0  0  0
  3  8  4  0  0  0  0
  7  8  4  0  0  0  0
  8  9  1  0  0  0  0
  7 10  1  0  0  0  0
 10 11  1  0  0  0  0
  1 12  1  0  0  0  0
  1 13  1  0  0  0  0
  1 14  1  0  0  0  0
  4 15  1  0  0  0  0
  5 16  1  0  0  0  0
  6 17  1  0  0  0  0
  9 18  1  0  0  0  0
 11 19  1  0  0  0  0
 11 20  1  0  0  0  0
 11 21  1  0  0  0  0
M  END
