 xtb: 6.7.1 (edcfbbe)
          04112511583D

 18 17  0     0  0            999 V2000
   -2.3115    0.3837    0.4678 C   0  0  0  0  0  0  0  0  0  0  0  0
   -0.9668    0.6959   -0.1780 C   0  0  0  0  0  0  0  0  0  0  0  0
    0.0708   -0.3913    0.1115 C   0  0  0  0  0  0  0  0  0  0  0  0
    1.4772    0.0054   -0.3621 C   0  0  0  0  0  0  0  0  0  0  0  0
    2.1297    1.0675    0.5143 C   0  0  0  0  0  0  0  0  0  0  0  0
   -0.3716   -1.5690   -0.5478 O   0  0  0  0  0  0  0  0  0  0  0  0
   -2.6698   -0.5836    0.1250 H   0  0  0  0  0  0  0  0  0  0  0  0
   -2.2159    0.3542    1.5510 H   0  0  0  0  0  0  0  0  0  0  0  0
   -3.0436    1.1422    0.2037 H   0  0  0  0  0  0  0  0  0  0  0  0
   -1.0884    0.7618   -1.2606 H   0  0  0  0  0  0  0  0  0  0  0  0
   -0.5957    1.6517    0.1901 H   0  0  0  0  0  0  0  0  0  0  0  0
    0.0992   -0.5754    1.1986 H   0  0  0  0  0  0  0  0  0  0  0  0
    2.1057   -0.8890   -0.3548 H   0  0  0  0  0  0  0  0  0  0  0  0
    1.4135    0.3554   -1.3942 H   0  0  0  0  0  0  0  0  0  0  0  0
    2.1655    0.7359    1.5496 H   0  0  0  0  0  0  0  0  0  0  0  0
    3.1458    1.2535    0.1766 H   0  0  0  0  0  0  0  0  0  0  0  0
    1.5813    2.0043    0.4722 H   0  0  0  0  0  0  0  0  0  0  0  0
    0.2405   -2.2919   -0.3580 H   0  0  0  0  0  0  0  0  0  0  0  0
  1  2  1  0  0  0  0
  2  3  1  0  0  0  0
  3  4  1  0  0  0  0
  4  5  1  0  0  0  0
  3  6  1  0  0  0  0
  1  7  1  0  0  0  0
  1  8  1  0  0  0  0
  1  9  1  0  0  0  0
  2 10  1  0  0  0  0
  2 11  1  0  0  0  0
  3 12  1  0  0  0  0
  4 13  1  0  0  0  0
  4 14  1  0  0  0  0
  5 15  1  0  0  0  0
  5 16  1  0  0  0  0
  5 17  1  0  0  0  0
  6 18  1  0  0  0  0
M  END
