 xtb: 6.7.1 (edcfbbe)
          04112511243D

 20 19  0     0  0            999 V2000
   -0.1949   -2.5779    0.0175 C   0  0  0  0  0  0  0  0  0  0  0  0
    0.0435   -1.0984   -0.2108 C   0  0  0  0  0  0  0  0  0  0  0  0
    1.2779   -0.7575    0.3984 O   0  0  0  0  0  0  0  0  0  0  0  0
    1.7435    0.4938    0.2529 C   0  0  0  0  0  0  0  0  0  0  0  0
    1.1491    1.3463   -0.3683 O   0  0  0  0  0  0  0  0  0  0  0  0
    3.0583    0.6674    0.9386 C   0  0  0  0  0  0  0  0  0  0  0  0
   -0.9755   -0.3250    0.4095 O   0  0  0  0  0  0  0  0  0  0  0  0
   -1.7474    0.4683   -0.3528 C   0  0  0  0  0  0  0  0  0  0  0  0
   -1.7113    0.4584   -1.5607 O   0  0  0  0  0  0  0  0  0  0  0  0
   -2.6373    1.3212    0.4894 C   0  0  0  0  0  0  0  0  0  0  0  0
   -1.1207   -2.8717   -0.4663 H   0  0  0  0  0  0  0  0  0  0  0  0
   -0.2611   -2.7644    1.0851 H   0  0  0  0  0  0  0  0  0  0  0  0
    0.6340   -3.1386   -0.4007 H   0  0  0  0  0  0  0  0  0  0  0  0
    0.0725   -0.8305   -1.2787 H   0  0  0  0  0  0  0  0  0  0  0  0
    3.2798   -0.2065    1.5407 H   0  0  0  0  0  0  0  0  0  0  0  0
    3.8270    0.8037    0.1811 H   0  0  0  0  0  0  0  0  0  0  0  0
    3.0299    1.5666    1.5476 H   0  0  0  0  0  0  0  0  0  0  0  0
   -2.1149    2.2578    0.6775 H   0  0  0  0  0  0  0  0  0  0  0  0
   -3.5542    1.5371   -0.0493 H   0  0  0  0  0  0  0  0  0  0  0  0
   -2.8341    0.8313    1.4370 H   0  0  0  0  0  0  0  0  0  0  0  0
  1  2  1  0  0  0  0
  2  3  1  0  0  0  0
  3  4  1  0  0  0  0
  4  5  2  0  0  0  0
  4  6  1  0  0  0  0
  2  7  1  0  0  0  0
  7  8  1  0  0  0  0
  8  9  2  0  0  0  0
  8 10  1  0  0  0  0
  1 11  1  0  0  0  0
  1 12  1  0  0  0  0
  1 13  1  0  0  0  0
  2 14  1  0  0  0  0
  6 15  1  0  0  0  0
  6 16  1  0  0  0  0
  6 17  1  0  0  0  0
 10 18  1  0  0  0  0
 10 19  1  0  0  0  0
 10 20  1  0  0  0  0
M  END
