 xtb: 6.7.1 (edcfbbe)
          04072507453D

 21 20  0     0  0            999 V2000
    1.8847   -0.1776   -1.2471 C   0  0  0  0  0  0  0  0  0  0  0  0
    1.0306   -0.2083    0.0212 C   0  0  0  0  0  0  0  0  0  0  0  0
    1.8806    0.0841    1.2587 C   0  0  0  0  0  0  0  0  0  0  0  0
    0.0057    0.7842   -0.0846 O   0  0  0  0  0  0  0  0  0  0  0  0
   -1.3516    0.3619   -0.0387 C   0  0  0  0  0  0  0  0  0  0  0  0
   -1.7358   -0.5416   -1.2134 C   0  0  0  0  0  0  0  0  0  0  0  0
   -1.7346   -0.2730    1.3007 C   0  0  0  0  0  0  0  0  0  0  0  0
    1.2761   -0.4063   -2.1180 H   0  0  0  0  0  0  0  0  0  0  0  0
    2.3094    0.8146   -1.3739 H   0  0  0  0  0  0  0  0  0  0  0  0
    2.6877   -0.9050   -1.1740 H   0  0  0  0  0  0  0  0  0  0  0  0
    0.5803   -1.2021    0.1242 H   0  0  0  0  0  0  0  0  0  0  0  0
    2.3040    1.0818    1.1798 H   0  0  0  0  0  0  0  0  0  0  0  0
    2.6845   -0.6416    1.3390 H   0  0  0  0  0  0  0  0  0  0  0  0
    1.2696    0.0385    2.1563 H   0  0  0  0  0  0  0  0  0  0  0  0
   -1.8871    1.3143   -0.1403 H   0  0  0  0  0  0  0  0  0  0  0  0
   -2.8116   -0.6885   -1.2187 H   0  0  0  0  0  0  0  0  0  0  0  0
   -1.4391   -0.0762   -2.1501 H   0  0  0  0  0  0  0  0  0  0  0  0
   -1.2539   -1.5134   -1.1363 H   0  0  0  0  0  0  0  0  0  0  0  0
   -1.2519   -1.2387    1.4305 H   0  0  0  0  0  0  0  0  0  0  0  0
   -2.8102   -0.4161    1.3378 H   0  0  0  0  0  0  0  0  0  0  0  0
   -1.4377    0.3801    2.1176 H   0  0  0  0  0  0  0  0  0  0  0  0
  1  2  1  0  0  0  0
  2  3  1  0  0  0  0
  2  4  1  0  0  0  0
  4  5  1  0  0  0  0
  5  6  1  0  0  0  0
  5  7  1  0  0  0  0
  1  8  1  0  0  0  0
  1  9  1  0  0  0  0
  1 10  1  0  0  0  0
  2 11  1  0  0  0  0
  3 12  1  0  0  0  0
  3 13  1  0  0  0  0
  3 14  1  0  0  0  0
  5 15  1  0  0  0  0
  6 16  1  0  0  0  0
  6 17  1  0  0  0  0
  6 18  1  0  0  0  0
  7 19  1  0  0  0  0
  7 20  1  0  0  0  0
  7 21  1  0  0  0  0
M  END
