 xtb: 6.7.1 (edcfbbe)
          04112510353D

 18 17  0     0  0            999 V2000
   -2.0592    0.3285    0.7176 C   0  0  0  0  0  0  0  0  0  0  0  0
   -1.5224    0.2265   -0.7050 C   0  0  0  0  0  0  0  0  0  0  0  0
   -0.2400   -0.6043   -0.7755 C   0  0  0  0  0  0  0  0  0  0  0  0
    0.9370   -0.0466   -0.0136 C   0  0  0  0  0  0  0  0  0  0  0  0
    1.1902    1.2460    0.1149 C   0  0  0  0  0  0  0  0  0  0  0  0
    1.8439   -1.0874    0.5726 C   0  0  0  0  0  0  0  0  0  0  0  0
   -2.2868   -0.6603    1.1096 H   0  0  0  0  0  0  0  0  0  0  0  0
   -2.9680    0.9251    0.7411 H   0  0  0  0  0  0  0  0  0  0  0  0
   -1.3222    0.7942    1.3675 H   0  0  0  0  0  0  0  0  0  0  0  0
   -2.2748   -0.2461   -1.3405 H   0  0  0  0  0  0  0  0  0  0  0  0
   -1.3419    1.2262   -1.1021 H   0  0  0  0  0  0  0  0  0  0  0  0
   -0.4543   -1.6073   -0.3988 H   0  0  0  0  0  0  0  0  0  0  0  0
    0.0551   -0.7100   -1.8244 H   0  0  0  0  0  0  0  0  0  0  0  0
    2.0545    1.5986    0.6527 H   0  0  0  0  0  0  0  0  0  0  0  0
    0.5568    2.0088   -0.3028 H   0  0  0  0  0  0  0  0  0  0  0  0
    1.3132   -1.6602    1.3324 H   0  0  0  0  0  0  0  0  0  0  0  0
    2.1662   -1.7817   -0.2020 H   0  0  0  0  0  0  0  0  0  0  0  0
    2.7209   -0.6344    1.0267 H   0  0  0  0  0  0  0  0  0  0  0  0
  1  2  1  0  0  0  0
  2  3  1  0  0  0  0
  3  4  1  0  0  0  0
  4  5  2  0  0  0  0
  4  6  1  0  0  0  0
  1  7  1  0  0  0  0
  1  8  1  0  0  0  0
  1  9  1  0  0  0  0
  2 10  1  0  0  0  0
  2 11  1  0  0  0  0
  3 12  1  0  0  0  0
  3 13  1  0  0  0  0
  5 14  1  0  0  0  0
  5 15  1  0  0  0  0
  6 16  1  0  0  0  0
  6 17  1  0  0  0  0
  6 18  1  0  0  0  0
M  END
