 xtb: 6.7.1 (edcfbbe)
          04112512153D

 21 20  0     0  0            999 V2000
    2.0641    0.1189   -1.1153 C   0  0  0  0  0  0  0  0  0  0  0  0
    1.6586   -0.5465    0.1939 C   0  0  0  0  0  0  0  0  0  0  0  0
    0.2736   -0.1291    0.7107 C   0  0  0  0  0  0  0  0  0  0  0  0
    0.1160   -0.6776    1.6556 H   0  0  0  0  0  0  0  0  0  0  0  0
   -0.8794   -0.5117   -0.2569 C   0  0  0  0  0  0  0  0  0  0  0  0
   -2.0742   -1.0739    0.5151 C   0  0  0  0  0  0  0  0  0  0  0  0
   -1.3339    0.6615   -1.1263 C   0  0  0  0  0  0  0  0  0  0  0  0
    0.3321    1.2562    1.0003 O   0  0  0  0  0  0  0  0  0  0  0  0
    1.9924    1.1989   -1.0157 H   0  0  0  0  0  0  0  0  0  0  0  0
    1.4280   -0.2055   -1.9342 H   0  0  0  0  0  0  0  0  0  0  0  0
    3.0922   -0.1394   -1.3568 H   0  0  0  0  0  0  0  0  0  0  0  0
    1.6700   -1.6320    0.0830 H   0  0  0  0  0  0  0  0  0  0  0  0
    2.3836   -0.2757    0.9644 H   0  0  0  0  0  0  0  0  0  0  0  0
   -0.5008   -1.3020   -0.9122 H   0  0  0  0  0  0  0  0  0  0  0  0
   -2.4684   -0.3358    1.2107 H   0  0  0  0  0  0  0  0  0  0  0  0
   -2.8687   -1.3484   -0.1746 H   0  0  0  0  0  0  0  0  0  0  0  0
   -1.7874   -1.9596    1.0775 H   0  0  0  0  0  0  0  0  0  0  0  0
   -1.9758    0.2993   -1.9256 H   0  0  0  0  0  0  0  0  0  0  0  0
   -0.4844    1.1748   -1.5656 H   0  0  0  0  0  0  0  0  0  0  0  0
   -1.8991    1.3814   -0.5390 H   0  0  0  0  0  0  0  0  0  0  0  0
   -0.4990    1.5277    1.4088 H   0  0  0  0  0  0  0  0  0  0  0  0
  1  2  1  0  0  0  0
  2  3  1  0  0  0  0
  3  4  1  0  0  0  0
  3  5  1  0  0  0  0
  5  6  1  0  0  0  0
  5  7  1  0  0  0  0
  3  8  1  0  0  0  0
  1  9  1  0  0  0  0
  1 10  1  0  0  0  0
  1 11  1  0  0  0  0
  2 12  1  0  0  0  0
  2 13  1  0  0  0  0
  5 14  1  0  0  0  0
  6 15  1  0  0  0  0
  6 16  1  0  0  0  0
  6 17  1  0  0  0  0
  7 18  1  0  0  0  0
  7 19  1  0  0  0  0
  7 20  1  0  0  0  0
  8 21  1  0  0  0  0
M  END
