 xtb: 6.7.1 (edcfbbe)
          04112512213D

 19 18  0     0  0            999 V2000
    2.4714    0.8425    0.2991 C   0  0  0  0  0  0  0  0  0  0  0  0
    1.2457   -0.0662    0.2494 C   0  0  0  0  0  0  0  0  0  0  0  0
    1.4745   -1.2214   -0.7230 C   0  0  0  0  0  0  0  0  0  0  0  0
    0.0064    0.7366   -0.1563 C   0  0  0  0  0  0  0  0  0  0  0  0
   -1.2996    0.0294    0.0929 C   0  0  0  0  0  0  0  0  0  0  0  0
   -1.3802   -1.0453    0.6561 O   0  0  0  0  0  0  0  0  0  0  0  0
   -2.5218    0.7656   -0.3854 C   0  0  0  0  0  0  0  0  0  0  0  0
    2.3337    1.6395    1.0259 H   0  0  0  0  0  0  0  0  0  0  0  0
    3.3525    0.2719    0.5810 H   0  0  0  0  0  0  0  0  0  0  0  0
    2.6505    1.2893   -0.6763 H   0  0  0  0  0  0  0  0  0  0  0  0
    1.0674   -0.4854    1.2460 H   0  0  0  0  0  0  0  0  0  0  0  0
    0.6062   -1.8761   -0.7413 H   0  0  0  0  0  0  0  0  0  0  0  0
    2.3371   -1.8091   -0.4189 H   0  0  0  0  0  0  0  0  0  0  0  0
    1.6509   -0.8444   -1.7284 H   0  0  0  0  0  0  0  0  0  0  0  0
    0.0579    0.9991   -1.2151 H   0  0  0  0  0  0  0  0  0  0  0  0
   -0.0346    1.6734    0.4062 H   0  0  0  0  0  0  0  0  0  0  0  0
   -3.1355    1.0174    0.4774 H   0  0  0  0  0  0  0  0  0  0  0  0
   -2.2659    1.6676   -0.9291 H   0  0  0  0  0  0  0  0  0  0  0  0
   -3.1138    0.1038   -1.0138 H   0  0  0  0  0  0  0  0  0  0  0  0
  1  2  1  0  0  0  0
  2  3  1  0  0  0  0
  2  4  1  0  0  0  0
  4  5  1  0  0  0  0
  5  6  2  0  0  0  0
  5  7  1  0  0  0  0
  1  8  1  0  0  0  0
  1  9  1  0  0  0  0
  1 10  1  0  0  0  0
  2 11  1  0  0  0  0
  3 12  1  0  0  0  0
  3 13  1  0  0  0  0
  3 14  1  0  0  0  0
  4 15  1  0  0  0  0
  4 16  1  0  0  0  0
  7 17  1  0  0  0  0
  7 18  1  0  0  0  0
  7 19  1  0  0  0  0
M  END
