 xtb: 6.7.1 (edcfbbe)
          04112511193D

 14 13  0     0  0            999 V2000
   -1.3503   -0.3582   -0.4622 C   0  0  0  0  0  0  0  0  0  0  0  0
   -0.0064   -0.0785    0.2150 C   0  0  0  0  0  0  0  0  0  0  0  0
    1.1538   -0.7285   -0.5449 C   0  0  0  0  0  0  0  0  0  0  0  0
    2.3740   -0.5734    0.1348 O   0  0  0  0  0  0  0  0  0  0  0  0
    0.2539    1.3102    0.2640 O   0  0  0  0  0  0  0  0  0  0  0  0
   -2.3541    0.2473    0.3257 O   0  0  0  0  0  0  0  0  0  0  0  0
   -1.5009   -1.4412   -0.5301 H   0  0  0  0  0  0  0  0  0  0  0  0
   -1.3382    0.0719   -1.4716 H   0  0  0  0  0  0  0  0  0  0  0  0
   -0.0378   -0.4812    1.2393 H   0  0  0  0  0  0  0  0  0  0  0  0
    1.2145   -0.2812   -1.5459 H   0  0  0  0  0  0  0  0  0  0  0  0
    0.9885   -1.8027   -0.6381 H   0  0  0  0  0  0  0  0  0  0  0  0
    2.4921    0.3706    0.3185 H   0  0  0  0  0  0  0  0  0  0  0  0
   -0.5270    1.7473    0.6335 H   0  0  0  0  0  0  0  0  0  0  0  0
   -3.2208    0.0804   -0.0675 H   0  0  0  0  0  0  0  0  0  0  0  0
  1  2  1  0  0  0  0
  2  3  1  0  0  0  0
  3  4  1  0  0  0  0
  2  5  1  0  0  0  0
  1  6  1  0  0  0  0
  1  7  1  0  0  0  0
  1  8  1  0  0  0  0
  2  9  1  0  0  0  0
  3 10  1  0  0  0  0
  3 11  1  0  0  0  0
  4 12  1  0  0  0  0
  5 13  1  0  0  0  0
  6 14  1  0  0  0  0
M  END
