 xtb: 6.7.1 (edcfbbe)
          04112511493D

 17 16  0     0  0            999 V2000
   -2.1781    1.0669    0.5690 C   0  0  0  0  0  0  0  0  0  0  0  0
   -2.0883   -0.2933   -0.1121 C   0  0  0  0  0  0  0  0  0  0  0  0
   -0.8217   -0.4139   -0.9652 C   0  0  0  0  0  0  0  0  0  0  0  0
    0.4130   -0.4082   -0.1019 C   0  0  0  0  0  0  0  0  0  0  0  0
    0.5954   -1.1266    0.8587 O   0  0  0  0  0  0  0  0  0  0  0  0
    1.3015    0.4827   -0.5282 O   0  0  0  0  0  0  0  0  0  0  0  0
    2.5419    0.6008    0.1744 C   0  0  0  0  0  0  0  0  0  0  0  0
   -2.1643    1.8659   -0.1684 H   0  0  0  0  0  0  0  0  0  0  0  0
   -3.0967    1.1423    1.1448 H   0  0  0  0  0  0  0  0  0  0  0  0
   -1.3379    1.2081    1.2464 H   0  0  0  0  0  0  0  0  0  0  0  0
   -2.9586   -0.4417   -0.7516 H   0  0  0  0  0  0  0  0  0  0  0  0
   -2.0765   -1.0816    0.6429 H   0  0  0  0  0  0  0  0  0  0  0  0
   -0.7496    0.4039   -1.6812 H   0  0  0  0  0  0  0  0  0  0  0  0
   -0.8365   -1.3634   -1.5035 H   0  0  0  0  0  0  0  0  0  0  0  0
    3.2745    0.9304   -0.5566 H   0  0  0  0  0  0  0  0  0  0  0  0
    2.8189   -0.3621    0.6052 H   0  0  0  0  0  0  0  0  0  0  0  0
    2.4360    1.3381    0.9703 H   0  0  0  0  0  0  0  0  0  0  0  0
  1  2  1  0  0  0  0
  2  3  1  0  0  0  0
  3  4  1  0  0  0  0
  4  5  2  0  0  0  0
  4  6  1  0  0  0  0
  6  7  1  0  0  0  0
  1  8  1  0  0  0  0
  1  9  1  0  0  0  0
  1 10  1  0  0  0  0
  2 11  1  0  0  0  0
  2 12  1  0  0  0  0
  3 13  1  0  0  0  0
  3 14  1  0  0  0  0
  7 15  1  0  0  0  0
  7 16  1  0  0  0  0
  7 17  1  0  0  0  0
M  END
