 xtb: 6.7.1 (edcfbbe)
          04112511213D

 14 13  0     0  0            999 V2000
   -2.8507    0.4269   -0.1527 C   0  0  0  0  0  0  0  0  0  0  0  0
   -1.4418    0.2801    0.4087 C   0  0  0  0  0  0  0  0  0  0  0  0
   -0.6600   -0.8130   -0.3179 C   0  0  0  0  0  0  0  0  0  0  0  0
    0.7410   -1.0018    0.2336 C   0  0  0  0  0  0  0  0  0  0  0  0
    1.7627    0.4508   -0.0688 Cl  0  0  0  0  0  0  0  0  0  0  0  0
   -2.8155    0.6869   -1.2081 H   0  0  0  0  0  0  0  0  0  0  0  0
   -3.4020   -0.5044   -0.0467 H   0  0  0  0  0  0  0  0  0  0  0  0
   -3.3905    1.2087    0.3750 H   0  0  0  0  0  0  0  0  0  0  0  0
   -1.4967    0.0379    1.4720 H   0  0  0  0  0  0  0  0  0  0  0  0
   -0.9096    1.2284    0.3105 H   0  0  0  0  0  0  0  0  0  0  0  0
   -1.1839   -1.7651   -0.2104 H   0  0  0  0  0  0  0  0  0  0  0  0
   -0.6041   -0.5760   -1.3817 H   0  0  0  0  0  0  0  0  0  0  0  0
    1.2543   -1.8302   -0.2506 H   0  0  0  0  0  0  0  0  0  0  0  0
    0.7317   -1.1414    1.3132 H   0  0  0  0  0  0  0  0  0  0  0  0
  1  2  1  0  0  0  0
  2  3  1  0  0  0  0
  3  4  1  0  0  0  0
  4  5  1  0  0  0  0
  1  6  1  0  0  0  0
  1  7  1  0  0  0  0
  1  8  1  0  0  0  0
  2  9  1  0  0  0  0
  2 10  1  0  0  0  0
  3 11  1  0  0  0  0
  3 12  1  0  0  0  0
  4 13  1  0  0  0  0
  4 14  1  0  0  0  0
M  END
