 xtb: 6.7.1 (edcfbbe)
          04112511493D

 21 20  0     0  0            999 V2000
    1.8869    0.7905   -1.0333 C   0  0  0  0  0  0  0  0  0  0  0  0
    1.4437   -0.2250    0.0211 C   0  0  0  0  0  0  0  0  0  0  0  0
    2.1966   -1.0230    0.0547 H   0  0  0  0  0  0  0  0  0  0  0  0
    0.0818   -0.8829   -0.3052 C   0  0  0  0  0  0  0  0  0  0  0  0
   -1.1720   -0.1922    0.2498 C   0  0  0  0  0  0  0  0  0  0  0  0
   -1.4779    1.1435   -0.4261 C   0  0  0  0  0  0  0  0  0  0  0  0
   -2.3692   -1.1284    0.0759 C   0  0  0  0  0  0  0  0  0  0  0  0
    1.4869    0.3280    1.3250 O   0  0  0  0  0  0  0  0  0  0  0  0
    1.9926    0.2990   -1.9958 H   0  0  0  0  0  0  0  0  0  0  0  0
    1.1701    1.5999   -1.1319 H   0  0  0  0  0  0  0  0  0  0  0  0
    2.8501    1.2093   -0.7495 H   0  0  0  0  0  0  0  0  0  0  0  0
   -0.0021   -0.9733   -1.3890 H   0  0  0  0  0  0  0  0  0  0  0  0
    0.0993   -1.8926    0.1105 H   0  0  0  0  0  0  0  0  0  0  0  0
   -1.0264   -0.0278    1.3233 H   0  0  0  0  0  0  0  0  0  0  0  0
   -1.5274    1.0178   -1.5056 H   0  0  0  0  0  0  0  0  0  0  0  0
   -0.7293    1.8971   -0.1984 H   0  0  0  0  0  0  0  0  0  0  0  0
   -2.4392    1.5197   -0.0823 H   0  0  0  0  0  0  0  0  0  0  0  0
   -3.2680   -0.6766    0.4889 H   0  0  0  0  0  0  0  0  0  0  0  0
   -2.5402   -1.3311   -0.9792 H   0  0  0  0  0  0  0  0  0  0  0  0
   -2.1984   -2.0744    0.5843 H   0  0  0  0  0  0  0  0  0  0  0  0
    0.9656    1.1423    1.3326 H   0  0  0  0  0  0  0  0  0  0  0  0
  1  2  1  0  0  0  0
  2  3  1  0  0  0  0
  2  4  1  0  0  0  0
  4  5  1  0  0  0  0
  5  6  1  0  0  0  0
  5  7  1  0  0  0  0
  2  8  1  0  0  0  0
  1  9  1  0  0  0  0
  1 10  1  0  0  0  0
  1 11  1  0  0  0  0
  4 12  1  0  0  0  0
  4 13  1  0  0  0  0
  5 14  1  0  0  0  0
  6 15  1  0  0  0  0
  6 16  1  0  0  0  0
  6 17  1  0  0  0  0
  7 18  1  0  0  0  0
  7 19  1  0  0  0  0
  7 20  1  0  0  0  0
  8 21  1  0  0  0  0
M  END
