 xtb: 6.7.1 (edcfbbe)
          04112510353D

 18 17  0     0  0            999 V2000
   -2.2345   -0.8002   -0.1690 C   0  0  0  0  0  0  0  0  0  0  0  0
   -1.4584    0.5066   -0.2894 C   0  0  0  0  0  0  0  0  0  0  0  0
   -0.2799    0.6143    0.6973 C   0  0  0  0  0  0  0  0  0  0  0  0
    1.0276    0.1536    0.1120 C   0  0  0  0  0  0  0  0  0  0  0  0
    1.9842    1.0154   -0.1980 C   0  0  0  0  0  0  0  0  0  0  0  0
    1.1909   -1.3184   -0.1167 C   0  0  0  0  0  0  0  0  0  0  0  0
   -2.6511   -0.9004    0.8312 H   0  0  0  0  0  0  0  0  0  0  0  0
   -1.5991   -1.6594   -0.3621 H   0  0  0  0  0  0  0  0  0  0  0  0
   -3.0549   -0.8158   -0.8833 H   0  0  0  0  0  0  0  0  0  0  0  0
   -1.0835    0.6227   -1.3086 H   0  0  0  0  0  0  0  0  0  0  0  0
   -2.1480    1.3319   -0.1005 H   0  0  0  0  0  0  0  0  0  0  0  0
   -0.1697    1.6561    1.0029 H   0  0  0  0  0  0  0  0  0  0  0  0
   -0.5088    0.0270    1.5893 H   0  0  0  0  0  0  0  0  0  0  0  0
    2.9224    0.6979   -0.6220 H   0  0  0  0  0  0  0  0  0  0  0  0
    1.8702    2.0752   -0.0426 H   0  0  0  0  0  0  0  0  0  0  0  0
    0.5793   -1.6372   -0.9596 H   0  0  0  0  0  0  0  0  0  0  0  0
    2.2268   -1.5614   -0.3388 H   0  0  0  0  0  0  0  0  0  0  0  0
    0.8757   -1.8788    0.7612 H   0  0  0  0  0  0  0  0  0  0  0  0
  1  2  1  0  0  0  0
  2  3  1  0  0  0  0
  3  4  1  0  0  0  0
  4  5  2  0  0  0  0
  4  6  1  0  0  0  0
  1  7  1  0  0  0  0
  1  8  1  0  0  0  0
  1  9  1  0  0  0  0
  2 10  1  0  0  0  0
  2 11  1  0  0  0  0
  3 12  1  0  0  0  0
  3 13  1  0  0  0  0
  5 14  1  0  0  0  0
  5 15  1  0  0  0  0
  6 16  1  0  0  0  0
  6 17  1  0  0  0  0
  6 18  1  0  0  0  0
M  END
