 xtb: 6.7.1 (edcfbbe)
          04112511443D

 25 25  0     0  0            999 V2000
    1.7928   -0.8115    1.5908 C   0  0  0  0  0  0  0  0  0  0  0  0
    2.3282   -0.1428    0.3592 C   0  0  0  0  0  0  0  0  0  0  0  0
    3.6293   -0.0162    0.1461 C   0  0  0  0  0  0  0  0  0  0  0  0
    1.3199    0.4019   -0.6238 C   0  0  0  0  0  0  0  0  0  0  0  0
    1.8733    0.8438   -1.4564 H   0  0  0  0  0  0  0  0  0  0  0  0
    0.4041   -0.7067   -1.1733 C   0  0  0  0  0  0  0  0  0  0  0  0
   -1.0361   -0.2221   -1.3727 C   0  0  0  0  0  0  0  0  0  0  0  0
   -1.5474    0.2660   -0.0520 C   0  0  0  0  0  0  0  0  0  0  0  0
   -0.7570    1.0976    0.6511 C   0  0  0  0  0  0  0  0  0  0  0  0
    0.5200    1.5505    0.0534 C   0  0  0  0  0  0  0  0  0  0  0  0
   -2.8142   -0.1989    0.4635 C   0  0  0  0  0  0  0  0  0  0  0  0
   -3.5737   -0.9695   -0.0987 O   0  0  0  0  0  0  0  0  0  0  0  0
    0.8350   -0.3851    1.8801 H   0  0  0  0  0  0  0  0  0  0  0  0
    1.6447   -1.8761    1.4105 H   0  0  0  0  0  0  0  0  0  0  0  0
    2.4937   -0.7117    2.4153 H   0  0  0  0  0  0  0  0  0  0  0  0
    4.0212    0.4533   -0.7401 H   0  0  0  0  0  0  0  0  0  0  0  0
    4.3577   -0.3871    0.8473 H   0  0  0  0  0  0  0  0  0  0  0  0
    0.8032   -1.0747   -2.1181 H   0  0  0  0  0  0  0  0  0  0  0  0
    0.3773   -1.5462   -0.4786 H   0  0  0  0  0  0  0  0  0  0  0  0
   -1.0550    0.5898   -2.1036 H   0  0  0  0  0  0  0  0  0  0  0  0
   -1.6706   -1.0302   -1.7387 H   0  0  0  0  0  0  0  0  0  0  0  0
   -1.0496    1.4634    1.6246 H   0  0  0  0  0  0  0  0  0  0  0  0
    0.2721    2.2776   -0.7252 H   0  0  0  0  0  0  0  0  0  0  0  0
    1.1506    2.0522    0.7867 H   0  0  0  0  0  0  0  0  0  0  0  0
   -3.0823    0.2076    1.4578 H   0  0  0  0  0  0  0  0  0  0  0  0
  1  2  1  0  0  0  0
  2  3  2  0  0  0  0
  2  4  1  0  0  0  0
  4  5  1  0  0  0  0
  4  6  1  0  0  0  0
  6  7  1  0  0  0  0
  7  8  1  0  0  0  0
  8  9  2  0  0  0  0
  4 10  1  0  0  0  0
  9 10  1  0  0  0  0
  8 11  1  0  0  0  0
 11 12  2  0  0  0  0
  1 13  1  0  0  0  0
  1 14  1  0  0  0  0
  1 15  1  0  0  0  0
  3 16  1  0  0  0  0
  3 17  1  0  0  0  0
  6 18  1  0  0  0  0
  6 19  1  0  0  0  0
  7 20  1  0  0  0  0
  7 21  1  0  0  0  0
  9 22  1  0  0  0  0
 10 23  1  0  0  0  0
 10 24  1  0  0  0  0
 11 25  1  0  0  0  0
M  END
