 xtb: 6.7.1 (edcfbbe)
          04112511223D

 21 21  0     0  0            999 V2000
   -3.6683   -0.3895   -0.9044 C   0  0  0  0  0  0  0  0  0  0  0  0
   -3.0079   -0.4310    0.4656 C   0  0  0  0  0  0  0  0  0  0  0  0
   -1.5890   -0.6141    0.3520 O   0  0  0  0  0  0  0  0  0  0  0  0
   -0.8270    0.4662    0.1962 C   0  0  0  0  0  0  0  0  0  0  0  0
   -1.2747    1.5995    0.1702 O   0  0  0  0  0  0  0  0  0  0  0  0
    0.6100    0.1447    0.0731 C   0  0  0  0  0  0  0  0  0  0  0  0
    1.5160    1.1940   -0.0741 C   0  0  0  0  0  0  0  0  0  0  0  0
    2.8671    0.9303   -0.1922 C   0  0  0  0  0  0  0  0  0  0  0  0
    3.3207   -0.3797   -0.1648 C   0  0  0  0  0  0  0  0  0  0  0  0
    2.4228   -1.4266   -0.0194 C   0  0  0  0  0  0  0  0  0  0  0  0
    1.0696   -1.1710    0.0997 C   0  0  0  0  0  0  0  0  0  0  0  0
   -3.4269   -1.2893   -1.4637 H   0  0  0  0  0  0  0  0  0  0  0  0
   -4.7442   -0.3193   -0.7825 H   0  0  0  0  0  0  0  0  0  0  0  0
   -3.3181    0.4777   -1.4600 H   0  0  0  0  0  0  0  0  0  0  0  0
   -3.3495   -1.2895    1.0449 H   0  0  0  0  0  0  0  0  0  0  0  0
   -3.1985    0.4976    1.0128 H   0  0  0  0  0  0  0  0  0  0  0  0
    1.1356    2.2044   -0.0922 H   0  0  0  0  0  0  0  0  0  0  0  0
    3.5658    1.7444   -0.3054 H   0  0  0  0  0  0  0  0  0  0  0  0
    4.3760   -0.5851   -0.2571 H   0  0  0  0  0  0  0  0  0  0  0  0
    2.7795   -2.4445    0.0011 H   0  0  0  0  0  0  0  0  0  0  0  0
    0.3623   -1.9769    0.2131 H   0  0  0  0  0  0  0  0  0  0  0  0
  1  2  1  0  0  0  0
  2  3  1  0  0  0  0
  3  4  1  0  0  0  0
  4  5  2  0  0  0  0
  4  6  1  0  0  0  0
  6  7  4  0  0  0  0
  7  8  4  0  0  0  0
  8  9  4  0  0  0  0
  9 10  4  0  0  0  0
  6 11  4  0  0  0  0
 10 11  4  0  0  0  0
  1 12  1  0  0  0  0
  1 13  1  0  0  0  0
  1 14  1  0  0  0  0
  2 15  1  0  0  0  0
  2 16  1  0  0  0  0
  7 17  1  0  0  0  0
  8 18  1  0  0  0  0
  9 19  1  0  0  0  0
 10 20  1  0  0  0  0
 11 21  1  0  0  0  0
M  END
