 xtb: 6.7.1 (edcfbbe)
          04112512153D

 21 20  0     0  0            999 V2000
    1.9796   -1.0002    0.2519 C   0  0  0  0  0  0  0  0  0  0  0  0
    1.2287    0.1593    0.8986 C   0  0  0  0  0  0  0  0  0  0  0  0
    0.1692    0.8365    0.0126 C   0  0  0  0  0  0  0  0  0  0  0  0
   -0.0489    1.8117    0.4863 H   0  0  0  0  0  0  0  0  0  0  0  0
   -1.1940    0.1199   -0.1297 C   0  0  0  0  0  0  0  0  0  0  0  0
   -1.1046   -1.2444   -0.8096 C   0  0  0  0  0  0  0  0  0  0  0  0
   -1.9175    0.0119    1.2103 C   0  0  0  0  0  0  0  0  0  0  0  0
    0.7574    1.0725   -1.2563 O   0  0  0  0  0  0  0  0  0  0  0  0
    2.8449   -1.2543    0.8598 H   0  0  0  0  0  0  0  0  0  0  0  0
    2.3233   -0.7080   -0.7365 H   0  0  0  0  0  0  0  0  0  0  0  0
    1.3583   -1.8839    0.1577 H   0  0  0  0  0  0  0  0  0  0  0  0
    0.7573   -0.1629    1.8263 H   0  0  0  0  0  0  0  0  0  0  0  0
    1.9607    0.9308    1.1486 H   0  0  0  0  0  0  0  0  0  0  0  0
   -1.7947    0.7729   -0.7779 H   0  0  0  0  0  0  0  0  0  0  0  0
   -0.4105   -1.2054   -1.6452 H   0  0  0  0  0  0  0  0  0  0  0  0
   -0.7707   -2.0041   -0.1088 H   0  0  0  0  0  0  0  0  0  0  0  0
   -2.0833   -1.5378   -1.1828 H   0  0  0  0  0  0  0  0  0  0  0  0
   -2.9307   -0.3494    1.0528 H   0  0  0  0  0  0  0  0  0  0  0  0
   -1.9685    0.9811    1.7015 H   0  0  0  0  0  0  0  0  0  0  0  0
   -1.4094   -0.6852    1.8714 H   0  0  0  0  0  0  0  0  0  0  0  0
    0.1427    1.5816   -1.8004 H   0  0  0  0  0  0  0  0  0  0  0  0
  1  2  1  0  0  0  0
  2  3  1  0  0  0  0
  3  4  1  0  0  0  0
  3  5  1  0  0  0  0
  5  6  1  0  0  0  0
  5  7  1  0  0  0  0
  3  8  1  0  0  0  0
  1  9  1  0  0  0  0
  1 10  1  0  0  0  0
  1 11  1  0  0  0  0
  2 12  1  0  0  0  0
  2 13  1  0  0  0  0
  5 14  1  0  0  0  0
  6 15  1  0  0  0  0
  6 16  1  0  0  0  0
  6 17  1  0  0  0  0
  7 18  1  0  0  0  0
  7 19  1  0  0  0  0
  7 20  1  0  0  0  0
  8 21  1  0  0  0  0
M  END
