 xtb: 6.7.1 (edcfbbe)
          04112512083D

 17 16  0     0  0            999 V2000
   -3.3277    0.0013   -0.0525 C   0  0  0  0  0  0  0  0  0  0  0  0
   -1.9791    0.7064    0.0165 C   0  0  0  0  0  0  0  0  0  0  0  0
   -0.8477   -0.2951    0.2053 C   0  0  0  0  0  0  0  0  0  0  0  0
    0.3901    0.4239    0.3007 O   0  0  0  0  0  0  0  0  0  0  0  0
    1.5110   -0.1850   -0.0686 C   0  0  0  0  0  0  0  0  0  0  0  0
    1.5474   -1.3282   -0.4761 O   0  0  0  0  0  0  0  0  0  0  0  0
    2.6995    0.7160    0.0819 C   0  0  0  0  0  0  0  0  0  0  0  0
   -3.5192   -0.5469    0.8662 H   0  0  0  0  0  0  0  0  0  0  0  0
   -4.1216    0.7285   -0.1939 H   0  0  0  0  0  0  0  0  0  0  0  0
   -3.3489   -0.7010   -0.8820 H   0  0  0  0  0  0  0  0  0  0  0  0
   -1.9633    1.4088    0.8505 H   0  0  0  0  0  0  0  0  0  0  0  0
   -1.8023    1.2685   -0.9015 H   0  0  0  0  0  0  0  0  0  0  0  0
   -0.9805   -0.8691    1.1283 H   0  0  0  0  0  0  0  0  0  0  0  0
   -0.7838   -0.9974   -0.6328 H   0  0  0  0  0  0  0  0  0  0  0  0
    2.8077    0.9884    1.1284 H   0  0  0  0  0  0  0  0  0  0  0  0
    2.5335    1.6260   -0.4878 H   0  0  0  0  0  0  0  0  0  0  0  0
    3.5907    0.2053   -0.2671 H   0  0  0  0  0  0  0  0  0  0  0  0
  1  2  1  0  0  0  0
  2  3  1  0  0  0  0
  3  4  1  0  0  0  0
  4  5  1  0  0  0  0
  5  6  2  0  0  0  0
  5  7  1  0  0  0  0
  1  8  1  0  0  0  0
  1  9  1  0  0  0  0
  1 10  1  0  0  0  0
  2 11  1  0  0  0  0
  2 12  1  0  0  0  0
  3 13  1  0  0  0  0
  3 14  1  0  0  0  0
  7 15  1  0  0  0  0
  7 16  1  0  0  0  0
  7 17  1  0  0  0  0
M  END
