 xtb: 6.7.1 (edcfbbe)
          04112511523D

 18 17  0     0  0            999 V2000
    1.8152   -1.3421   -0.1437 C   0  0  0  0  0  0  0  0  0  0  0  0
    0.8161   -0.2440    0.2158 C   0  0  0  0  0  0  0  0  0  0  0  0
    1.5497    1.0719    0.4694 C   0  0  0  0  0  0  0  0  0  0  0  0
   -0.2523   -0.0862   -0.8851 C   0  0  0  0  0  0  0  0  0  0  0  0
   -1.6761   -0.2519   -0.3507 C   0  0  0  0  0  0  0  0  0  0  0  0
   -2.0227    0.7010    0.6330 O   0  0  0  0  0  0  0  0  0  0  0  0
    2.5459   -1.4659    0.6522 H   0  0  0  0  0  0  0  0  0  0  0  0
    2.3453   -1.0860   -1.0588 H   0  0  0  0  0  0  0  0  0  0  0  0
    1.3061   -2.2916   -0.2911 H   0  0  0  0  0  0  0  0  0  0  0  0
    0.3088   -0.5291    1.1439 H   0  0  0  0  0  0  0  0  0  0  0  0
    0.8514    1.8443    0.7811 H   0  0  0  0  0  0  0  0  0  0  0  0
    2.0611    1.4028   -0.4324 H   0  0  0  0  0  0  0  0  0  0  0  0
    2.2900    0.9469    1.2563 H   0  0  0  0  0  0  0  0  0  0  0  0
   -0.1049   -0.8363   -1.6627 H   0  0  0  0  0  0  0  0  0  0  0  0
   -0.1609    0.8959   -1.3533 H   0  0  0  0  0  0  0  0  0  0  0  0
   -2.3923   -0.2104   -1.1832 H   0  0  0  0  0  0  0  0  0  0  0  0
   -1.7806   -1.2220    0.1416 H   0  0  0  0  0  0  0  0  0  0  0  0
   -2.0061    1.5808    0.2324 H   0  0  0  0  0  0  0  0  0  0  0  0
  1  2  1  0  0  0  0
  2  3  1  0  0  0  0
  2  4  1  0  0  0  0
  4  5  1  0  0  0  0
  5  6  1  0  0  0  0
  1  7  1  0  0  0  0
  1  8  1  0  0  0  0
  1  9  1  0  0  0  0
  2 10  1  0  0  0  0
  3 11  1  0  0  0  0
  3 12  1  0  0  0  0
  3 13  1  0  0  0  0
  4 14  1  0  0  0  0
  4 15  1  0  0  0  0
  5 16  1  0  0  0  0
  5 17  1  0  0  0  0
  6 18  1  0  0  0  0
M  END
