 xtb: 6.7.1 (edcfbbe)
          04112511513D

 19 19  0     0  0            999 V2000
    0.7232   -2.8319   -0.1469 C   0  0  0  0  0  0  0  0  0  0  0  0
    1.4499   -1.6237   -0.0167 O   0  0  0  0  0  0  0  0  0  0  0  0
    0.8457   -0.4226   -0.0141 C   0  0  0  0  0  0  0  0  0  0  0  0
    1.7224    0.6799    0.0080 C   0  0  0  0  0  0  0  0  0  0  0  0
    1.2691    1.9809    0.0293 C   0  0  0  0  0  0  0  0  0  0  0  0
   -0.0935    2.2381    0.0244 C   0  0  0  0  0  0  0  0  0  0  0  0
   -0.9670    1.1711    0.0133 C   0  0  0  0  0  0  0  0  0  0  0  0
   -0.5280   -0.1566    0.0075 C   0  0  0  0  0  0  0  0  0  0  0  0
   -1.6160   -1.1975   -0.0294 C   0  0  0  0  0  0  0  0  0  0  0  0
   -1.9818   -1.7288   -1.0499 O   0  0  0  0  0  0  0  0  0  0  0  0
   -2.1990   -1.4717    1.1292 O   0  0  0  0  0  0  0  0  0  0  0  0
   -2.6843    1.4562   -0.0306 Cl  0  0  0  0  0  0  0  0  0  0  0  0
    3.4194    0.3504   -0.0016 Cl  0  0  0  0  0  0  0  0  0  0  0  0
    1.4797   -3.6133   -0.1251 H   0  0  0  0  0  0  0  0  0  0  0  0
    0.1780   -2.8709   -1.0918 H   0  0  0  0  0  0  0  0  0  0  0  0
    0.0283   -2.9765    0.6827 H   0  0  0  0  0  0  0  0  0  0  0  0
    1.9787    2.7908    0.0415 H   0  0  0  0  0  0  0  0  0  0  0  0
   -0.4665    3.2472    0.0269 H   0  0  0  0  0  0  0  0  0  0  0  0
   -1.8635   -0.9615    1.8898 H   0  0  0  0  0  0  0  0  0  0  0  0
  1  2  1  0  0  0  0
  2  3  1  0  0  0  0
  3  4  4  0  0  0  0
  4  5  4  0  0  0  0
  5  6  4  0  0  0  0
  6  7  4  0  0  0  0
  3  8  4  0  0  0  0
  7  8  4  0  0  0  0
  8  9  1  0  0  0  0
  9 10  2  0  0  0  0
  9 11  1  0  0  0  0
  7 12  1  0  0  0  0
  4 13  1  0  0  0  0
  1 14  1  0  0  0  0
  1 15  1  0  0  0  0
  1 16  1  0  0  0  0
  5 17  1  0  0  0  0
  6 18  1  0  0  0  0
 11 19  1  0  0  0  0
M  END
