 xtb: 6.7.1 (edcfbbe)
          04112512213D

 14 13  0     0  0            999 V2000
   -2.7877    0.2262    0.0235 C   0  0  0  0  0  0  0  0  0  0  0  0
   -1.3882   -0.1865   -0.4126 C   0  0  0  0  0  0  0  0  0  0  0  0
   -0.3186    0.3964    0.5209 C   0  0  0  0  0  0  0  0  0  0  0  0
    1.0425   -0.0948    0.1126 C   0  0  0  0  0  0  0  0  0  0  0  0
    1.4017   -1.2529    0.1601 O   0  0  0  0  0  0  0  0  0  0  0  0
    1.8233    0.8729   -0.3402 O   0  0  0  0  0  0  0  0  0  0  0  0
   -2.8844    1.3088    0.0181 H   0  0  0  0  0  0  0  0  0  0  0  0
   -2.9962   -0.1348    1.0273 H   0  0  0  0  0  0  0  0  0  0  0  0
   -3.5287   -0.1900   -0.6534 H   0  0  0  0  0  0  0  0  0  0  0  0
   -1.2987   -1.2747   -0.4078 H   0  0  0  0  0  0  0  0  0  0  0  0
   -1.2035    0.1616   -1.4308 H   0  0  0  0  0  0  0  0  0  0  0  0
   -0.3293    1.4847    0.4846 H   0  0  0  0  0  0  0  0  0  0  0  0
   -0.5134    0.0580    1.5395 H   0  0  0  0  0  0  0  0  0  0  0  0
    2.6992    0.5521   -0.6317 H   0  0  0  0  0  0  0  0  0  0  0  0
  1  2  1  0  0  0  0
  2  3  1  0  0  0  0
  3  4  1  0  0  0  0
  4  5  2  0  0  0  0
  4  6  1  0  0  0  0
  1  7  1  0  0  0  0
  1  8  1  0  0  0  0
  1  9  1  0  0  0  0
  2 10  1  0  0  0  0
  2 11  1  0  0  0  0
  3 12  1  0  0  0  0
  3 13  1  0  0  0  0
  6 14  1  0  0  0  0
M  END
