 xtb: 6.7.1 (edcfbbe)
          04112511553D

 24 24  0     0  0            999 V2000
   -3.4479   -0.1849   -0.3590 C   0  0  0  0  0  0  0  0  0  0  0  0
   -1.9592    0.1144   -0.4973 C   0  0  0  0  0  0  0  0  0  0  0  0
   -1.2078   -0.2324    0.7874 C   0  0  0  0  0  0  0  0  0  0  0  0
    0.3174   -0.1146    0.7223 C   0  0  0  0  0  0  0  0  0  0  0  0
    1.0056   -1.1542   -0.1749 C   0  0  0  0  0  0  0  0  0  0  0  0
    2.3496   -0.5262   -0.5897 C   0  0  0  0  0  0  0  0  0  0  0  0
    2.3447    0.8993   -0.0167 C   0  0  0  0  0  0  0  0  0  0  0  0
    0.8667    1.2127    0.1971 C   0  0  0  0  0  0  0  0  0  0  0  0
   -3.8754    0.3832    0.4643 H   0  0  0  0  0  0  0  0  0  0  0  0
   -3.9775    0.0800   -1.2710 H   0  0  0  0  0  0  0  0  0  0  0  0
   -3.6084   -1.2429   -0.1631 H   0  0  0  0  0  0  0  0  0  0  0  0
   -1.5577   -0.4595   -1.3341 H   0  0  0  0  0  0  0  0  0  0  0  0
   -1.8310    1.1739   -0.7242 H   0  0  0  0  0  0  0  0  0  0  0  0
   -1.5708    0.4217    1.5844 H   0  0  0  0  0  0  0  0  0  0  0  0
   -1.4537   -1.2593    1.0713 H   0  0  0  0  0  0  0  0  0  0  0  0
    0.6944   -0.2476    1.7434 H   0  0  0  0  0  0  0  0  0  0  0  0
    1.1416   -2.0996    0.3491 H   0  0  0  0  0  0  0  0  0  0  0  0
    0.3957   -1.3501   -1.0560 H   0  0  0  0  0  0  0  0  0  0  0  0
    3.1944   -1.0982   -0.2080 H   0  0  0  0  0  0  0  0  0  0  0  0
    2.4355   -0.4975   -1.6758 H   0  0  0  0  0  0  0  0  0  0  0  0
    2.8653    0.9204    0.9421 H   0  0  0  0  0  0  0  0  0  0  0  0
    2.8312    1.6114   -0.6815 H   0  0  0  0  0  0  0  0  0  0  0  0
    0.7061    2.0367    0.8909 H   0  0  0  0  0  0  0  0  0  0  0  0
    0.4033    1.4614   -0.7573 H   0  0  0  0  0  0  0  0  0  0  0  0
  1  2  1  0  0  0  0
  2  3  1  0  0  0  0
  3  4  1  0  0  0  0
  4  5  1  0  0  0  0
  5  6  1  0  0  0  0
  6  7  1  0  0  0  0
  4  8  1  0  0  0  0
  7  8  1  0  0  0  0
  1  9  1  0  0  0  0
  1 10  1  0  0  0  0
  1 11  1  0  0  0  0
  2 12  1  0  0  0  0
  2 13  1  0  0  0  0
  3 14  1  0  0  0  0
  3 15  1  0  0  0  0
  4 16  1  0  0  0  0
  5 17  1  0  0  0  0
  5 18  1  0  0  0  0
  6 19  1  0  0  0  0
  6 20  1  0  0  0  0
  7 21  1  0  0  0  0
  7 22  1  0  0  0  0
  8 23  1  0  0  0  0
  8 24  1  0  0  0  0
M  END
