 xtb: 6.7.1 (edcfbbe)
          04112512213D

 19 18  0     0  0            999 V2000
    1.5462   -0.8229    0.8364 C   0  0  0  0  0  0  0  0  0  0  0  0
    1.0751   -0.2797   -0.5100 C   0  0  0  0  0  0  0  0  0  0  0  0
    2.2493    0.3014   -1.2938 C   0  0  0  0  0  0  0  0  0  0  0  0
   -0.0022    0.8029   -0.3055 C   0  0  0  0  0  0  0  0  0  0  0  0
   -1.2475    0.2313    0.3181 C   0  0  0  0  0  0  0  0  0  0  0  0
   -1.5610    0.4664    1.4706 O   0  0  0  0  0  0  0  0  0  0  0  0
   -2.0840   -0.6514   -0.5641 C   0  0  0  0  0  0  0  0  0  0  0  0
    2.0140   -0.0336    1.4209 H   0  0  0  0  0  0  0  0  0  0  0  0
    0.7096   -1.2159    1.4106 H   0  0  0  0  0  0  0  0  0  0  0  0
    2.2708   -1.6204    0.6921 H   0  0  0  0  0  0  0  0  0  0  0  0
    0.6433   -1.1032   -1.0869 H   0  0  0  0  0  0  0  0  0  0  0  0
    3.0138   -0.4573   -1.4406 H   0  0  0  0  0  0  0  0  0  0  0  0
    2.6920    1.1338   -0.7520 H   0  0  0  0  0  0  0  0  0  0  0  0
    1.9256    0.6570   -2.2686 H   0  0  0  0  0  0  0  0  0  0  0  0
   -0.2641    1.2338   -1.2728 H   0  0  0  0  0  0  0  0  0  0  0  0
    0.3939    1.5858    0.3437 H   0  0  0  0  0  0  0  0  0  0  0  0
   -3.0650   -0.1934   -0.6761 H   0  0  0  0  0  0  0  0  0  0  0  0
   -1.6352   -0.7955   -1.5399 H   0  0  0  0  0  0  0  0  0  0  0  0
   -2.2365   -1.6106   -0.0737 H   0  0  0  0  0  0  0  0  0  0  0  0
  1  2  1  0  0  0  0
  2  3  1  0  0  0  0
  2  4  1  0  0  0  0
  4  5  1  0  0  0  0
  5  6  2  0  0  0  0
  5  7  1  0  0  0  0
  1  8  1  0  0  0  0
  1  9  1  0  0  0  0
  1 10  1  0  0  0  0
  2 11  1  0  0  0  0
  3 12  1  0  0  0  0
  3 13  1  0  0  0  0
  3 14  1  0  0  0  0
  4 15  1  0  0  0  0
  4 16  1  0  0  0  0
  7 17  1  0  0  0  0
  7 18  1  0  0  0  0
  7 19  1  0  0  0  0
M  END
