 xtb: 6.7.1 (edcfbbe)
          04072508213D

 16 15  0     0  0            999 V2000
   -2.5594   -0.5414    0.3450 C   0  0  0  0  0  0  0  0  0  0  0  0
   -1.8133    0.6977   -0.1385 C   0  0  0  0  0  0  0  0  0  0  0  0
   -0.3852    0.4013   -0.5964 C   0  0  0  0  0  0  0  0  0  0  0  0
    0.5279   -0.0359    0.5550 C   0  0  0  0  0  0  0  0  0  0  0  0
    1.8933   -0.2041    0.1021 C   0  0  0  0  0  0  0  0  0  0  0  0
    3.0144   -0.3362   -0.2964 C   0  0  0  0  0  0  0  0  0  0  0  0
   -2.5508   -1.3131   -0.4219 H   0  0  0  0  0  0  0  0  0  0  0  0
   -3.5941   -0.2930    0.5691 H   0  0  0  0  0  0  0  0  0  0  0  0
   -2.1079   -0.9457    1.2472 H   0  0  0  0  0  0  0  0  0  0  0  0
   -2.3597    1.1326   -0.9786 H   0  0  0  0  0  0  0  0  0  0  0  0
   -1.7900    1.4429    0.6602 H   0  0  0  0  0  0  0  0  0  0  0  0
   -0.4005   -0.3804   -1.3594 H   0  0  0  0  0  0  0  0  0  0  0  0
    0.0358    1.3003   -1.0534 H   0  0  0  0  0  0  0  0  0  0  0  0
    0.1820   -0.9838    0.9731 H   0  0  0  0  0  0  0  0  0  0  0  0
    0.5093    0.7183    1.3467 H   0  0  0  0  0  0  0  0  0  0  0  0
    4.0001   -0.4556   -0.6334 H   0  0  0  0  0  0  0  0  0  0  0  0
  1  2  1  0  0  0  0
  2  3  1  0  0  0  0
  3  4  1  0  0  0  0
  4  5  1  0  0  0  0
  5  6  3  0  0  0  0
  1  7  1  0  0  0  0
  1  8  1  0  0  0  0
  1  9  1  0  0  0  0
  2 10  1  0  0  0  0
  2 11  1  0  0  0  0
  3 12  1  0  0  0  0
  3 13  1  0  0  0  0
  4 14  1  0  0  0  0
  4 15  1  0  0  0  0
  6 16  1  0  0  0  0
M  END
