 xtb: 6.7.1 (edcfbbe)
          04112512243D

 23 22  0     0  0            999 V2000
    1.6800    1.4800    0.4457 C   0  0  0  0  0  0  0  0  0  0  0  0
    1.4552   -0.0277    0.4088 C   0  0  0  0  0  0  0  0  0  0  0  0
    0.3628   -0.5067   -0.5580 C   0  0  0  0  0  0  0  0  0  0  0  0
    0.5880   -0.0875   -1.5460 H   0  0  0  0  0  0  0  0  0  0  0  0
    0.4530   -2.0319   -0.6723 C   0  0  0  0  0  0  0  0  0  0  0  0
   -1.0875   -0.0981   -0.2068 C   0  0  0  0  0  0  0  0  0  0  0  0
   -1.3961   -0.1591    1.2879 C   0  0  0  0  0  0  0  0  0  0  0  0
   -1.4667    1.2724   -0.7700 C   0  0  0  0  0  0  0  0  0  0  0  0
    2.5935    1.7030    0.9935 H   0  0  0  0  0  0  0  0  0  0  0  0
    1.7810    1.8763   -0.5622 H   0  0  0  0  0  0  0  0  0  0  0  0
    0.8623    1.9956    0.9409 H   0  0  0  0  0  0  0  0  0  0  0  0
    1.2416   -0.3902    1.4150 H   0  0  0  0  0  0  0  0  0  0  0  0
    2.3904   -0.4969    0.0914 H   0  0  0  0  0  0  0  0  0  0  0  0
    1.4530   -2.3350   -0.9742 H   0  0  0  0  0  0  0  0  0  0  0  0
    0.2304   -2.5013    0.2832 H   0  0  0  0  0  0  0  0  0  0  0  0
   -0.2522   -2.4058   -1.4110 H   0  0  0  0  0  0  0  0  0  0  0  0
   -1.7385   -0.8290   -0.7028 H   0  0  0  0  0  0  0  0  0  0  0  0
   -1.1203   -1.1253    1.7030 H   0  0  0  0  0  0  0  0  0  0  0  0
   -2.4624   -0.0147    1.4486 H   0  0  0  0  0  0  0  0  0  0  0  0
   -0.8662    0.6187    1.8309 H   0  0  0  0  0  0  0  0  0  0  0  0
   -2.5258    1.4598   -0.6042 H   0  0  0  0  0  0  0  0  0  0  0  0
   -1.2788    1.3103   -1.8408 H   0  0  0  0  0  0  0  0  0  0  0  0
   -0.9045    2.0699   -0.2952 H   0  0  0  0  0  0  0  0  0  0  0  0
  1  2  1  0  0  0  0
  2  3  1  0  0  0  0
  3  4  1  0  0  0  0
  3  5  1  0  0  0  0
  3  6  1  0  0  0  0
  6  7  1  0  0  0  0
  6  8  1  0  0  0  0
  1  9  1  0  0  0  0
  1 10  1  0  0  0  0
  1 11  1  0  0  0  0
  2 12  1  0  0  0  0
  2 13  1  0  0  0  0
  5 14  1  0  0  0  0
  5 15  1  0  0  0  0
  5 16  1  0  0  0  0
  6 17  1  0  0  0  0
  7 18  1  0  0  0  0
  7 19  1  0  0  0  0
  7 20  1  0  0  0  0
  8 21  1  0  0  0  0
  8 22  1  0  0  0  0
  8 23  1  0  0  0  0
M  END
