 xtb: 6.7.1 (edcfbbe)
          04112511523D

 18 17  0     0  0            999 V2000
    1.7370   -1.4237   -0.1510 C   0  0  0  0  0  0  0  0  0  0  0  0
    1.0547   -0.1284    0.2851 C   0  0  0  0  0  0  0  0  0  0  0  0
    1.9899    1.0603    0.0685 C   0  0  0  0  0  0  0  0  0  0  0  0
   -0.2788    0.0732   -0.4618 C   0  0  0  0  0  0  0  0  0  0  0  0
   -1.4727    0.1115    0.4930 C   0  0  0  0  0  0  0  0  0  0  0  0
   -2.7123    0.2274   -0.1749 O   0  0  0  0  0  0  0  0  0  0  0  0
    1.0845   -2.2759    0.0227 H   0  0  0  0  0  0  0  0  0  0  0  0
    2.6567   -1.5766    0.4088 H   0  0  0  0  0  0  0  0  0  0  0  0
    1.9825   -1.3844   -1.2100 H   0  0  0  0  0  0  0  0  0  0  0  0
    0.8427   -0.2018    1.3576 H   0  0  0  0  0  0  0  0  0  0  0  0
    2.9138    0.9229    0.6253 H   0  0  0  0  0  0  0  0  0  0  0  0
    1.5222    1.9824    0.4055 H   0  0  0  0  0  0  0  0  0  0  0  0
    2.2374    1.1602   -0.9860 H   0  0  0  0  0  0  0  0  0  0  0  0
   -0.4402   -0.7368   -1.1751 H   0  0  0  0  0  0  0  0  0  0  0  0
   -0.2503    1.0071   -1.0270 H   0  0  0  0  0  0  0  0  0  0  0  0
   -1.5366   -0.8249    1.0532 H   0  0  0  0  0  0  0  0  0  0  0  0
   -1.3530    0.9349    1.2113 H   0  0  0  0  0  0  0  0  0  0  0  0
   -2.7138    1.0426   -0.6957 H   0  0  0  0  0  0  0  0  0  0  0  0
  1  2  1  0  0  0  0
  2  3  1  0  0  0  0
  2  4  1  0  0  0  0
  4  5  1  0  0  0  0
  5  6  1  0  0  0  0
  1  7  1  0  0  0  0
  1  8  1  0  0  0  0
  1  9  1  0  0  0  0
  2 10  1  0  0  0  0
  3 11  1  0  0  0  0
  3 12  1  0  0  0  0
  3 13  1  0  0  0  0
  4 14  1  0  0  0  0
  4 15  1  0  0  0  0
  5 16  1  0  0  0  0
  5 17  1  0  0  0  0
  6 18  1  0  0  0  0
M  END
