 xtb: 6.7.1 (edcfbbe)
          04112511523D

 13 12  0     0  0            999 V2000
   -1.5578   -0.8442    0.1290 C   0  0  0  0  0  0  0  0  0  0  0  0
   -1.2517    0.4447   -0.3707 O   0  0  0  0  0  0  0  0  0  0  0  0
   -0.0710    1.0108    0.1622 C   0  0  0  0  0  0  0  0  0  0  0  0
    1.2217    0.3531   -0.3482 C   0  0  0  0  0  0  0  0  0  0  0  0
    1.5703   -0.8372    0.3250 O   0  0  0  0  0  0  0  0  0  0  0  0
   -2.4774   -1.1454   -0.3662 H   0  0  0  0  0  0  0  0  0  0  0  0
   -1.7158   -0.8080    1.2127 H   0  0  0  0  0  0  0  0  0  0  0  0
   -0.7632   -1.5596   -0.0964 H   0  0  0  0  0  0  0  0  0  0  0  0
   -0.0929    2.0515   -0.1655 H   0  0  0  0  0  0  0  0  0  0  0  0
   -0.1026    0.9743    1.2608 H   0  0  0  0  0  0  0  0  0  0  0  0
    2.0387    1.0807   -0.2808 H   0  0  0  0  0  0  0  0  0  0  0  0
    1.0851    0.0746   -1.3958 H   0  0  0  0  0  0  0  0  0  0  0  0
    1.8213   -0.6300    1.2360 H   0  0  0  0  0  0  0  0  0  0  0  0
  1  2  1  0  0  0  0
  2  3  1  0  0  0  0
  3  4  1  0  0  0  0
  4  5  1  0  0  0  0
  1  6  1  0  0  0  0
  1  7  1  0  0  0  0
  1  8  1  0  0  0  0
  3  9  1  0  0  0  0
  3 10  1  0  0  0  0
  4 11  1  0  0  0  0
  4 12  1  0  0  0  0
  5 13  1  0  0  0  0
M  END
