 xtb: 6.7.1 (edcfbbe)
          04112511103D

 18 17  0     0  0            999 V2000
    2.1161   -1.0201   -0.4150 C   0  0  0  0  0  0  0  0  0  0  0  0
    1.7540    0.3775    0.0736 C   0  0  0  0  0  0  0  0  0  0  0  0
    0.3731    0.4671    0.7250 C   0  0  0  0  0  0  0  0  0  0  0  0
   -0.8024    0.2107   -0.2389 C   0  0  0  0  0  0  0  0  0  0  0  0
   -0.4761    0.4007   -1.2677 H   0  0  0  0  0  0  0  0  0  0  0  0
   -1.3489   -1.2116   -0.1261 C   0  0  0  0  0  0  0  0  0  0  0  0
   -1.8427    1.1582   -0.0379 O   0  0  0  0  0  0  0  0  0  0  0  0
    3.1437   -1.0362   -0.7705 H   0  0  0  0  0  0  0  0  0  0  0  0
    1.4709   -1.3246   -1.2347 H   0  0  0  0  0  0  0  0  0  0  0  0
    2.0219   -1.7427    0.3923 H   0  0  0  0  0  0  0  0  0  0  0  0
    2.4958    0.6960    0.8095 H   0  0  0  0  0  0  0  0  0  0  0  0
    1.7997    1.0771   -0.7639 H   0  0  0  0  0  0  0  0  0  0  0  0
    0.3213   -0.2313    1.5629 H   0  0  0  0  0  0  0  0  0  0  0  0
    0.2553    1.4789    1.1208 H   0  0  0  0  0  0  0  0  0  0  0  0
   -1.6998   -1.3985    0.8872 H   0  0  0  0  0  0  0  0  0  0  0  0
   -2.1821   -1.3421   -0.8131 H   0  0  0  0  0  0  0  0  0  0  0  0
   -0.5786   -1.9364   -0.3658 H   0  0  0  0  0  0  0  0  0  0  0  0
   -2.2493    0.9931    0.8244 H   0  0  0  0  0  0  0  0  0  0  0  0
  1  2  1  0  0  0  0
  2  3  1  0  0  0  0
  3  4  1  0  0  0  0
  4  5  1  0  0  0  0
  4  6  1  0  0  0  0
  4  7  1  0  0  0  0
  1  8  1  0  0  0  0
  1  9  1  0  0  0  0
  1 10  1  0  0  0  0
  2 11  1  0  0  0  0
  2 12  1  0  0  0  0
  3 13  1  0  0  0  0
  3 14  1  0  0  0  0
  6 15  1  0  0  0  0
  6 16  1  0  0  0  0
  6 17  1  0  0  0  0
  7 18  1  0  0  0  0
M  END
