 xtb: 6.7.1 (edcfbbe)
          04112511233D

 26 25  0     0  0            999 V2000
   -2.3704    0.7168    0.7640 C   0  0  0  0  0  0  0  0  0  0  0  0
   -1.2402   -0.2711    0.4686 C   0  0  0  0  0  0  0  0  0  0  0  0
   -1.8315   -1.4496   -0.3082 C   0  0  0  0  0  0  0  0  0  0  0  0
   -0.0749    0.3814   -0.3092 C   0  0  0  0  0  0  0  0  0  0  0  0
    0.2610    1.7771    0.2205 C   0  0  0  0  0  0  0  0  0  0  0  0
    1.1765   -0.5272   -0.3276 C   0  0  0  0  0  0  0  0  0  0  0  0
    2.0949   -0.1814   -1.5006 C   0  0  0  0  0  0  0  0  0  0  0  0
    1.9698   -0.4921    0.9783 C   0  0  0  0  0  0  0  0  0  0  0  0
   -3.2071    0.1911    1.2195 H   0  0  0  0  0  0  0  0  0  0  0  0
   -2.0533    1.4963    1.4496 H   0  0  0  0  0  0  0  0  0  0  0  0
   -2.7208    1.1791   -0.1564 H   0  0  0  0  0  0  0  0  0  0  0  0
   -0.8569   -0.6426    1.4250 H   0  0  0  0  0  0  0  0  0  0  0  0
   -2.2479   -1.1042   -1.2524 H   0  0  0  0  0  0  0  0  0  0  0  0
   -2.6291   -1.9144    0.2672 H   0  0  0  0  0  0  0  0  0  0  0  0
   -1.0876   -2.2120   -0.5217 H   0  0  0  0  0  0  0  0  0  0  0  0
   -0.4060    0.4932   -1.3490 H   0  0  0  0  0  0  0  0  0  0  0  0
    0.4023    1.7615    1.2979 H   0  0  0  0  0  0  0  0  0  0  0  0
   -0.5336    2.4790   -0.0148 H   0  0  0  0  0  0  0  0  0  0  0  0
    1.1723    2.1469   -0.2421 H   0  0  0  0  0  0  0  0  0  0  0  0
    0.8388   -1.5569   -0.4793 H   0  0  0  0  0  0  0  0  0  0  0  0
    1.5578   -0.2549   -2.4436 H   0  0  0  0  0  0  0  0  0  0  0  0
    2.4889    0.8277   -1.4076 H   0  0  0  0  0  0  0  0  0  0  0  0
    2.9369   -0.8694   -1.5320 H   0  0  0  0  0  0  0  0  0  0  0  0
    2.4505    0.4721    1.1176 H   0  0  0  0  0  0  0  0  0  0  0  0
    2.7448   -1.2554    0.9578 H   0  0  0  0  0  0  0  0  0  0  0  0
    1.3273   -0.6872    1.8330 H   0  0  0  0  0  0  0  0  0  0  0  0
  1  2  1  0  0  0  0
  2  3  1  0  0  0  0
  2  4  1  0  0  0  0
  4  5  1  0  0  0  0
  4  6  1  0  0  0  0
  6  7  1  0  0  0  0
  6  8  1  0  0  0  0
  1  9  1  0  0  0  0
  1 10  1  0  0  0  0
  1 11  1  0  0  0  0
  2 12  1  0  0  0  0
  3 13  1  0  0  0  0
  3 14  1  0  0  0  0
  3 15  1  0  0  0  0
  4 16  1  0  0  0  0
  5 17  1  0  0  0  0
  5 18  1  0  0  0  0
  5 19  1  0  0  0  0
  6 20  1  0  0  0  0
  7 21  1  0  0  0  0
  7 22  1  0  0  0  0
  7 23  1  0  0  0  0
  8 24  1  0  0  0  0
  8 25  1  0  0  0  0
  8 26  1  0  0  0  0
M  END
