 xtb: 6.7.1 (edcfbbe)
          04112511553D

 21 21  0     0  0            999 V2000
   -3.2705    1.1216   -0.7581 C   0  0  0  0  0  0  0  0  0  0  0  0
   -2.5632    0.0543    0.0315 C   0  0  0  0  0  0  0  0  0  0  0  0
   -3.2085   -0.7901    0.6429 O   0  0  0  0  0  0  0  0  0  0  0  0
   -1.0896    0.0087    0.0210 C   0  0  0  0  0  0  0  0  0  0  0  0
   -0.2744    1.1036   -0.2609 C   0  0  0  0  0  0  0  0  0  0  0  0
    1.1021    0.9922   -0.2413 C   0  0  0  0  0  0  0  0  0  0  0  0
    1.7036   -0.2306    0.0527 C   0  0  0  0  0  0  0  0  0  0  0  0
    0.8934   -1.3335    0.3480 C   0  0  0  0  0  0  0  0  0  0  0  0
   -0.4732   -1.2084    0.3416 C   0  0  0  0  0  0  0  0  0  0  0  0
    3.0371   -0.4514    0.0856 O   0  0  0  0  0  0  0  0  0  0  0  0
    3.9208    0.6169   -0.2120 C   0  0  0  0  0  0  0  0  0  0  0  0
   -4.0457    1.5680   -0.1394 H   0  0  0  0  0  0  0  0  0  0  0  0
   -3.7688    0.6314   -1.5933 H   0  0  0  0  0  0  0  0  0  0  0  0
   -2.6056    1.8833   -1.1426 H   0  0  0  0  0  0  0  0  0  0  0  0
   -0.7032    2.0708   -0.4677 H   0  0  0  0  0  0  0  0  0  0  0  0
    1.6996    1.8637   -0.4530 H   0  0  0  0  0  0  0  0  0  0  0  0
    1.3703   -2.2719    0.5812 H   0  0  0  0  0  0  0  0  0  0  0  0
   -1.1040   -2.0535    0.5739 H   0  0  0  0  0  0  0  0  0  0  0  0
    3.7599    0.9881   -1.2267 H   0  0  0  0  0  0  0  0  0  0  0  0
    4.9184    0.1919   -0.1308 H   0  0  0  0  0  0  0  0  0  0  0  0
    3.8084    1.4317    0.5068 H   0  0  0  0  0  0  0  0  0  0  0  0
  1  2  1  0  0  0  0
  2  3  2  0  0  0  0
  2  4  1  0  0  0  0
  4  5  4  0  0  0  0
  5  6  4  0  0  0  0
  6  7  4  0  0  0  0
  7  8  4  0  0  0  0
  4  9  4  0  0  0  0
  8  9  2  0  0  0  0
  7 10  1  0  0  0  0
 10 11  1  0  0  0  0
  1 12  1  0  0  0  0
  1 13  1  0  0  0  0
  1 14  1  0  0  0  0
  5 15  1  0  0  0  0
  6 16  1  0  0  0  0
  8 17  1  0  0  0  0
  9 18  1  0  0  0  0
 11 19  1  0  0  0  0
 11 20  1  0  0  0  0
 11 21  1  0  0  0  0
M  END
