 xtb: 6.7.1 (edcfbbe)
          04112512193D

 17 16  0     0  0            999 V2000
   -2.2403    0.7317    1.0167 C   0  0  0  0  0  0  0  0  0  0  0  0
   -1.8554    0.3366   -0.4061 C   0  0  0  0  0  0  0  0  0  0  0  0
   -0.5233   -0.3658   -0.4886 C   0  0  0  0  0  0  0  0  0  0  0  0
   -0.2954   -1.3018   -1.2310 O   0  0  0  0  0  0  0  0  0  0  0  0
    0.3791    0.1663    0.3187 O   0  0  0  0  0  0  0  0  0  0  0  0
    1.7149   -0.3642    0.3268 C   0  0  0  0  0  0  0  0  0  0  0  0
    2.7009    0.7870    0.4181 C   0  0  0  0  0  0  0  0  0  0  0  0
   -3.1973    1.2446    1.0064 H   0  0  0  0  0  0  0  0  0  0  0  0
   -2.3252   -0.1500    1.6465 H   0  0  0  0  0  0  0  0  0  0  0  0
   -1.4903    1.3911    1.4427 H   0  0  0  0  0  0  0  0  0  0  0  0
   -1.7775    1.2319   -1.0274 H   0  0  0  0  0  0  0  0  0  0  0  0
   -2.6022   -0.3207   -0.8521 H   0  0  0  0  0  0  0  0  0  0  0  0
    1.7967   -1.0221    1.1969 H   0  0  0  0  0  0  0  0  0  0  0  0
    1.8607   -0.9552   -0.5828 H   0  0  0  0  0  0  0  0  0  0  0  0
    2.6064    1.4348   -0.4490 H   0  0  0  0  0  0  0  0  0  0  0  0
    2.5090    1.3695    1.3143 H   0  0  0  0  0  0  0  0  0  0  0  0
    3.7103    0.3907    0.4575 H   0  0  0  0  0  0  0  0  0  0  0  0
  1  2  1  0  0  0  0
  2  3  1  0  0  0  0
  3  4  2  0  0  0  0
  3  5  1  0  0  0  0
  5  6  1  0  0  0  0
  6  7  1  0  0  0  0
  1  8  1  0  0  0  0
  1  9  1  0  0  0  0
  1 10  1  0  0  0  0
  2 11  1  0  0  0  0
  2 12  1  0  0  0  0
  6 13  1  0  0  0  0
  6 14  1  0  0  0  0
  7 15  1  0  0  0  0
  7 16  1  0  0  0  0
  7 17  1  0  0  0  0
M  END
