 xtb: 6.7.1 (edcfbbe)
          04112511563D

 21 21  0     0  0            999 V2000
   -3.2555    1.3132    0.7025 C   0  0  0  0  0  0  0  0  0  0  0  0
   -2.2345    1.3889   -0.2927 O   0  0  0  0  0  0  0  0  0  0  0  0
   -1.1463    0.5578   -0.1528 C   0  0  0  0  0  0  0  0  0  0  0  0
   -1.1869   -0.8296   -0.0930 C   0  0  0  0  0  0  0  0  0  0  0  0
   -0.0173   -1.5600    0.0386 C   0  0  0  0  0  0  0  0  0  0  0  0
    1.1892   -0.8947    0.0883 C   0  0  0  0  0  0  0  0  0  0  0  0
    1.2897    0.4988   -0.0058 C   0  0  0  0  0  0  0  0  0  0  0  0
    0.0956    1.2219   -0.1273 C   0  0  0  0  0  0  0  0  0  0  0  0
    0.0935    2.5723   -0.2295 O   0  0  0  0  0  0  0  0  0  0  0  0
    2.5485    0.9954    0.0440 O   0  0  0  0  0  0  0  0  0  0  0  0
    2.7942    2.3903   -0.0700 C   0  0  0  0  0  0  0  0  0  0  0  0
    2.6525   -1.7980    0.2509 Cl  0  0  0  0  0  0  0  0  0  0  0  0
   -2.6767   -1.7047   -0.2291 Cl  0  0  0  0  0  0  0  0  0  0  0  0
   -3.8980    2.1691    0.5114 H   0  0  0  0  0  0  0  0  0  0  0  0
   -2.8227    1.3820    1.7024 H   0  0  0  0  0  0  0  0  0  0  0  0
   -3.8353    0.3948    0.6183 H   0  0  0  0  0  0  0  0  0  0  0  0
   -0.0457   -2.6346    0.0927 H   0  0  0  0  0  0  0  0  0  0  0  0
   -0.8309    2.8657   -0.3446 H   0  0  0  0  0  0  0  0  0  0  0  0
    2.4371    2.7775   -1.0242 H   0  0  0  0  0  0  0  0  0  0  0  0
    3.8768    2.4803   -0.0132 H   0  0  0  0  0  0  0  0  0  0  0  0
    2.3302    2.9413    0.7481 H   0  0  0  0  0  0  0  0  0  0  0  0
  1  2  1  0  0  0  0
  2  3  1  0  0  0  0
  3  4  4  0  0  0  0
  4  5  4  0  0  0  0
  5  6  4  0  0  0  0
  6  7  4  0  0  0  0
  3  8  4  0  0  0  0
  7  8  4  0  0  0  0
  8  9  1  0  0  0  0
  7 10  1  0  0  0  0
 10 11  1  0  0  0  0
  6 12  1  0  0  0  0
  4 13  1  0  0  0  0
  1 14  1  0  0  0  0
  1 15  1  0  0  0  0
  1 16  1  0  0  0  0
  5 17  1  0  0  0  0
  9 18  1  0  0  0  0
 11 19  1  0  0  0  0
 11 20  1  0  0  0  0
 11 21  1  0  0  0  0
M  END
