 xtb: 6.7.1 (edcfbbe)
          04112511553D

 24 24  0     0  0            999 V2000
   -3.0787    0.0319   -0.7115 C   0  0  0  0  0  0  0  0  0  0  0  0
   -1.5612    0.1034   -0.5774 C   0  0  0  0  0  0  0  0  0  0  0  0
   -1.1149   -0.3010    0.8246 C   0  0  0  0  0  0  0  0  0  0  0  0
    0.3970   -0.3012    1.0854 C   0  0  0  0  0  0  0  0  0  0  0  0
    1.1897   -1.2532    0.1793 C   0  0  0  0  0  0  0  0  0  0  0  0
    1.7248   -0.4156   -0.9906 C   0  0  0  0  0  0  0  0  0  0  0  0
    1.6171    1.0582   -0.5643 C   0  0  0  0  0  0  0  0  0  0  0  0
    1.0745    1.0584    0.8700 C   0  0  0  0  0  0  0  0  0  0  0  0
   -3.4320   -0.9800   -0.5243 H   0  0  0  0  0  0  0  0  0  0  0  0
   -3.5572    0.6974    0.0040 H   0  0  0  0  0  0  0  0  0  0  0  0
   -3.3883    0.3240   -1.7122 H   0  0  0  0  0  0  0  0  0  0  0  0
   -1.1080   -0.5591   -1.3151 H   0  0  0  0  0  0  0  0  0  0  0  0
   -1.2352    1.1218   -0.7895 H   0  0  0  0  0  0  0  0  0  0  0  0
   -1.5824    0.3745    1.5467 H   0  0  0  0  0  0  0  0  0  0  0  0
   -1.4921   -1.3064    1.0329 H   0  0  0  0  0  0  0  0  0  0  0  0
    0.5181   -0.6071    2.1300 H   0  0  0  0  0  0  0  0  0  0  0  0
    2.0255   -1.6679    0.7445 H   0  0  0  0  0  0  0  0  0  0  0  0
    0.5765   -2.0857   -0.1630 H   0  0  0  0  0  0  0  0  0  0  0  0
    2.7563   -0.6862   -1.2148 H   0  0  0  0  0  0  0  0  0  0  0  0
    1.1411   -0.5922   -1.8933 H   0  0  0  0  0  0  0  0  0  0  0  0
    2.5850    1.5564   -0.6107 H   0  0  0  0  0  0  0  0  0  0  0  0
    0.9441    1.5957   -1.2312 H   0  0  0  0  0  0  0  0  0  0  0  0
    1.9024    1.1573    1.5736 H   0  0  0  0  0  0  0  0  0  0  0  0
    0.3875    1.8849    1.0466 H   0  0  0  0  0  0  0  0  0  0  0  0
  1  2  1  0  0  0  0
  2  3  1  0  0  0  0
  3  4  1  0  0  0  0
  4  5  1  0  0  0  0
  5  6  1  0  0  0  0
  6  7  1  0  0  0  0
  4  8  1  0  0  0  0
  7  8  1  0  0  0  0
  1  9  1  0  0  0  0
  1 10  1  0  0  0  0
  1 11  1  0  0  0  0
  2 12  1  0  0  0  0
  2 13  1  0  0  0  0
  3 14  1  0  0  0  0
  3 15  1  0  0  0  0
  4 16  1  0  0  0  0
  5 17  1  0  0  0  0
  5 18  1  0  0  0  0
  6 19  1  0  0  0  0
  6 20  1  0  0  0  0
  7 21  1  0  0  0  0
  7 22  1  0  0  0  0
  8 23  1  0  0  0  0
  8 24  1  0  0  0  0
M  END
