 xtb: 6.7.1 (edcfbbe)
          04112511143D

 17 16  0     0  0            999 V2000
    2.5163    0.7542    0.3209 C   0  0  0  0  0  0  0  0  0  0  0  0
    1.2541   -0.1027    0.2628 C   0  0  0  0  0  0  0  0  0  0  0  0
    1.4363   -1.2625   -0.7138 C   0  0  0  0  0  0  0  0  0  0  0  0
    0.0517    0.7556   -0.1466 C   0  0  0  0  0  0  0  0  0  0  0  0
   -1.2703    0.0689    0.0891 C   0  0  0  0  0  0  0  0  0  0  0  0
   -1.4145   -0.9457    0.7312 O   0  0  0  0  0  0  0  0  0  0  0  0
   -2.3381    0.6657   -0.4456 O   0  0  0  0  0  0  0  0  0  0  0  0
    2.4074    1.5565    1.0464 H   0  0  0  0  0  0  0  0  0  0  0  0
    2.7230    1.1907   -0.6535 H   0  0  0  0  0  0  0  0  0  0  0  0
    3.3687    0.1460    0.6108 H   0  0  0  0  0  0  0  0  0  0  0  0
    1.0509   -0.5168    1.2560 H   0  0  0  0  0  0  0  0  0  0  0  0
    1.6357   -0.8911   -1.7168 H   0  0  0  0  0  0  0  0  0  0  0  0
    2.2702   -1.8880   -0.4066 H   0  0  0  0  0  0  0  0  0  0  0  0
    0.5403   -1.8787   -0.7378 H   0  0  0  0  0  0  0  0  0  0  0  0
    0.1355    1.0289   -1.2005 H   0  0  0  0  0  0  0  0  0  0  0  0
    0.0425    1.6752    0.4452 H   0  0  0  0  0  0  0  0  0  0  0  0
   -2.1299    1.4779   -0.9424 H   0  0  0  0  0  0  0  0  0  0  0  0
  1  2  1  0  0  0  0
  2  3  1  0  0  0  0
  2  4  1  0  0  0  0
  4  5  1  0  0  0  0
  5  6  2  0  0  0  0
  5  7  1  0  0  0  0
  1  8  1  0  0  0  0
  1  9  1  0  0  0  0
  1 10  1  0  0  0  0
  2 11  1  0  0  0  0
  3 12  1  0  0  0  0
  3 13  1  0  0  0  0
  3 14  1  0  0  0  0
  4 15  1  0  0  0  0
  4 16  1  0  0  0  0
  7 17  1  0  0  0  0
M  END
