 xtb: 6.7.1 (edcfbbe)
          04112511533D

 26 27  0     0  0            999 V2000
    0.5335    1.6562    0.6137 C   0  0  0  0  0  0  0  0  0  0  0  0
    1.8778    1.9327    0.6776 C   0  0  0  0  0  0  0  0  0  0  0  0
    2.8390    0.9670    0.3595 C   0  0  0  0  0  0  0  0  0  0  0  0
    2.3982   -0.3130   -0.0267 C   0  0  0  0  0  0  0  0  0  0  0  0
    1.0257   -0.5762   -0.0774 C   0  0  0  0  0  0  0  0  0  0  0  0
    0.0835    0.3871    0.2327 C   0  0  0  0  0  0  0  0  0  0  0  0
   -1.3514    0.0682    0.1703 C   0  0  0  0  0  0  0  0  0  0  0  0
   -1.8356   -1.1428    0.6656 C   0  0  0  0  0  0  0  0  0  0  0  0
   -3.1795   -1.4622    0.6184 C   0  0  0  0  0  0  0  0  0  0  0  0
   -4.0565   -0.5524    0.0593 C   0  0  0  0  0  0  0  0  0  0  0  0
   -3.6330    0.6583   -0.4535 C   0  0  0  0  0  0  0  0  0  0  0  0
   -2.2830    0.9430   -0.3842 C   0  0  0  0  0  0  0  0  0  0  0  0
   -1.8701    2.1242   -0.9126 F   0  0  0  0  0  0  0  0  0  0  0  0
   -5.3804   -0.8517    0.0063 F   0  0  0  0  0  0  0  0  0  0  0  0
    3.2867   -1.4262   -0.3935 C   0  0  0  0  0  0  0  0  0  0  0  0
    2.8909   -2.5305   -0.7181 O   0  0  0  0  0  0  0  0  0  0  0  0
    4.5942   -1.1516   -0.3489 O   0  0  0  0  0  0  0  0  0  0  0  0
    4.1200    1.3420    0.4513 O   0  0  0  0  0  0  0  0  0  0  0  0
   -0.1779    2.4239    0.8739 H   0  0  0  0  0  0  0  0  0  0  0  0
    2.2313    2.9064    0.9759 H   0  0  0  0  0  0  0  0  0  0  0  0
    0.7241   -1.5637   -0.3931 H   0  0  0  0  0  0  0  0  0  0  0  0
   -1.1395   -1.8363    1.1085 H   0  0  0  0  0  0  0  0  0  0  0  0
   -3.5491   -2.3963    1.0071 H   0  0  0  0  0  0  0  0  0  0  0  0
   -4.3241    1.3558   -0.8960 H   0  0  0  0  0  0  0  0  0  0  0  0
    5.1366   -1.9236   -0.6016 H   0  0  0  0  0  0  0  0  0  0  0  0
    4.7247    0.6152    0.2116 H   0  0  0  0  0  0  0  0  0  0  0  0
  1  2  4  0  0  0  0
  2  3  4  0  0  0  0
  3  4  4  0  0  0  0
  4  5  4  0  0  0  0
  1  6  4  0  0  0  0
  5  6  4  0  0  0  0
  6  7  1  0  0  0  0
  7  8  4  0  0  0  0
  8  9  4  0  0  0  0
  9 10  4  0  0  0  0
 10 11  4  0  0  0  0
  7 12  4  0  0  0  0
 11 12  4  0  0  0  0
 12 13  1  0  0  0  0
 10 14  1  0  0  0  0
  4 15  1  0  0  0  0
 15 16  2  0  0  0  0
 15 17  1  0  0  0  0
  3 18  1  0  0  0  0
  1 19  1  0  0  0  0
  2 20  1  0  0  0  0
  5 21  1  0  0  0  0
  8 22  1  0  0  0  0
  9 23  1  0  0  0  0
 11 24  1  0  0  0  0
 17 25  1  0  0  0  0
 18 26  1  0  0  0  0
M  END
