 xtb: 6.7.1 (edcfbbe)
          04112512193D

 17 16  0     0  0            999 V2000
   -2.2480    1.1504   -0.3932 C   0  0  0  0  0  0  0  0  0  0  0  0
   -1.8383    0.0341    0.5720 C   0  0  0  0  0  0  0  0  0  0  0  0
   -0.5403   -0.5755    0.1089 C   0  0  0  0  0  0  0  0  0  0  0  0
   -0.4474   -1.6021   -0.5338 O   0  0  0  0  0  0  0  0  0  0  0  0
    0.4974    0.1666    0.4622 O   0  0  0  0  0  0  0  0  0  0  0  0
    1.8148   -0.2323    0.0461 C   0  0  0  0  0  0  0  0  0  0  0  0
    2.6468    1.0137   -0.1968 C   0  0  0  0  0  0  0  0  0  0  0  0
   -2.3628    0.7556   -1.4000 H   0  0  0  0  0  0  0  0  0  0  0  0
   -3.1937    1.5793   -0.0763 H   0  0  0  0  0  0  0  0  0  0  0  0
   -1.4930    1.9319   -0.4062 H   0  0  0  0  0  0  0  0  0  0  0  0
   -2.5979   -0.7465    0.5899 H   0  0  0  0  0  0  0  0  0  0  0  0
   -1.6966    0.4447    1.5708 H   0  0  0  0  0  0  0  0  0  0  0  0
    2.2419   -0.8431    0.8473 H   0  0  0  0  0  0  0  0  0  0  0  0
    1.7237   -0.8471   -0.8550 H   0  0  0  0  0  0  0  0  0  0  0  0
    2.2202    1.6014   -1.0047 H   0  0  0  0  0  0  0  0  0  0  0  0
    2.6734    1.6211    0.7030 H   0  0  0  0  0  0  0  0  0  0  0  0
    3.6573    0.7229   -0.4636 H   0  0  0  0  0  0  0  0  0  0  0  0
  1  2  1  0  0  0  0
  2  3  1  0  0  0  0
  3  4  2  0  0  0  0
  3  5  1  0  0  0  0
  5  6  1  0  0  0  0
  6  7  1  0  0  0  0
  1  8  1  0  0  0  0
  1  9  1  0  0  0  0
  1 10  1  0  0  0  0
  2 11  1  0  0  0  0
  2 12  1  0  0  0  0
  6 13  1  0  0  0  0
  6 14  1  0  0  0  0
  7 15  1  0  0  0  0
  7 16  1  0  0  0  0
  7 17  1  0  0  0  0
M  END
