 xtb: 6.7.1 (edcfbbe)
          04112512153D

 21 20  0     0  0            999 V2000
    1.8469   -1.0696    0.3824 C   0  0  0  0  0  0  0  0  0  0  0  0
    1.2866    0.2720    0.8440 C   0  0  0  0  0  0  0  0  0  0  0  0
    0.1811    0.8678   -0.0457 C   0  0  0  0  0  0  0  0  0  0  0  0
   -0.0325    1.8728    0.3648 H   0  0  0  0  0  0  0  0  0  0  0  0
   -1.1783    0.1359   -0.0861 C   0  0  0  0  0  0  0  0  0  0  0  0
   -1.1549   -1.1778   -0.8650 C   0  0  0  0  0  0  0  0  0  0  0  0
   -1.7513   -0.0700    1.3129 C   0  0  0  0  0  0  0  0  0  0  0  0
    0.6173    1.0126   -1.3878 O   0  0  0  0  0  0  0  0  0  0  0  0
    2.8241   -1.2367    0.8296 H   0  0  0  0  0  0  0  0  0  0  0  0
    1.9533   -1.0804   -0.6994 H   0  0  0  0  0  0  0  0  0  0  0  0
    1.2002   -1.8911    0.6740 H   0  0  0  0  0  0  0  0  0  0  0  0
    0.9101    0.1954    1.8635 H   0  0  0  0  0  0  0  0  0  0  0  0
    2.1023    1.0013    0.8567 H   0  0  0  0  0  0  0  0  0  0  0  0
   -1.8398    0.8187   -0.6338 H   0  0  0  0  0  0  0  0  0  0  0  0
   -0.6110   -1.0462   -1.7960 H   0  0  0  0  0  0  0  0  0  0  0  0
   -0.6893   -1.9722   -0.2912 H   0  0  0  0  0  0  0  0  0  0  0  0
   -2.1735   -1.4795   -1.0981 H   0  0  0  0  0  0  0  0  0  0  0  0
   -2.7767   -0.4230    1.2395 H   0  0  0  0  0  0  0  0  0  0  0  0
   -1.7467    0.8615    1.8744 H   0  0  0  0  0  0  0  0  0  0  0  0
   -1.1763   -0.8120    1.8606 H   0  0  0  0  0  0  0  0  0  0  0  0
    1.4321    1.5320   -1.3975 H   0  0  0  0  0  0  0  0  0  0  0  0
  1  2  1  0  0  0  0
  2  3  1  0  0  0  0
  3  4  1  0  0  0  0
  3  5  1  0  0  0  0
  5  6  1  0  0  0  0
  5  7  1  0  0  0  0
  3  8  1  0  0  0  0
  1  9  1  0  0  0  0
  1 10  1  0  0  0  0
  1 11  1  0  0  0  0
  2 12  1  0  0  0  0
  2 13  1  0  0  0  0
  5 14  1  0  0  0  0
  6 15  1  0  0  0  0
  6 16  1  0  0  0  0
  6 17  1  0  0  0  0
  7 18  1  0  0  0  0
  7 19  1  0  0  0  0
  7 20  1  0  0  0  0
  8 21  1  0  0  0  0
M  END
