 xtb: 6.7.1 (edcfbbe)
          04112511523D

 18 17  0     0  0            999 V2000
    1.0161   -1.2425    0.4921 C   0  0  0  0  0  0  0  0  0  0  0  0
    0.9919    0.2755    0.3217 C   0  0  0  0  0  0  0  0  0  0  0  0
    2.2458    0.7377   -0.4198 C   0  0  0  0  0  0  0  0  0  0  0  0
   -0.2549    0.7584   -0.4303 C   0  0  0  0  0  0  0  0  0  0  0  0
   -1.5846    0.4299    0.2612 C   0  0  0  0  0  0  0  0  0  0  0  0
   -2.1877   -0.7632   -0.1981 O   0  0  0  0  0  0  0  0  0  0  0  0
    0.9329   -1.7351   -0.4744 H   0  0  0  0  0  0  0  0  0  0  0  0
    0.2091   -1.5776    1.1391 H   0  0  0  0  0  0  0  0  0  0  0  0
    1.9537   -1.5510    0.9495 H   0  0  0  0  0  0  0  0  0  0  0  0
    0.9886    0.7362    1.3165 H   0  0  0  0  0  0  0  0  0  0  0  0
    2.2834    0.2932   -1.4118 H   0  0  0  0  0  0  0  0  0  0  0  0
    3.1404    0.4425    0.1231 H   0  0  0  0  0  0  0  0  0  0  0  0
    2.2515    1.8196   -0.5279 H   0  0  0  0  0  0  0  0  0  0  0  0
   -0.2751    0.3226   -1.4318 H   0  0  0  0  0  0  0  0  0  0  0  0
   -0.1858    1.8412   -0.5438 H   0  0  0  0  0  0  0  0  0  0  0  0
   -1.4462    0.3884    1.3505 H   0  0  0  0  0  0  0  0  0  0  0  0
   -2.3221    1.2059    0.0431 H   0  0  0  0  0  0  0  0  0  0  0  0
   -1.5724   -1.4982   -0.0691 H   0  0  0  0  0  0  0  0  0  0  0  0
  1  2  1  0  0  0  0
  2  3  1  0  0  0  0
  2  4  1  0  0  0  0
  4  5  1  0  0  0  0
  5  6  1  0  0  0  0
  1  7  1  0  0  0  0
  1  8  1  0  0  0  0
  1  9  1  0  0  0  0
  2 10  1  0  0  0  0
  3 11  1  0  0  0  0
  3 12  1  0  0  0  0
  3 13  1  0  0  0  0
  4 14  1  0  0  0  0
  4 15  1  0  0  0  0
  5 16  1  0  0  0  0
  5 17  1  0  0  0  0
  6 18  1  0  0  0  0
M  END
