 xtb: 6.7.1 (edcfbbe)
          04112511443D

 25 25  0     0  0            999 V2000
    3.5881   -0.0326   -0.8465 C   0  0  0  0  0  0  0  0  0  0  0  0
    2.5752   -0.1114    0.2536 C   0  0  0  0  0  0  0  0  0  0  0  0
    2.9198   -0.3096    1.5163 C   0  0  0  0  0  0  0  0  0  0  0  0
    1.1335    0.0452   -0.1787 C   0  0  0  0  0  0  0  0  0  0  0  0
    1.1071    0.1614   -1.2665 H   0  0  0  0  0  0  0  0  0  0  0  0
    0.2917   -1.1849    0.1791 C   0  0  0  0  0  0  0  0  0  0  0  0
   -1.0937   -1.0626   -0.4457 C   0  0  0  0  0  0  0  0  0  0  0  0
   -1.7109    0.2723   -0.1394 C   0  0  0  0  0  0  0  0  0  0  0  0
   -0.9803    1.3225    0.2680 C   0  0  0  0  0  0  0  0  0  0  0  0
    0.4921    1.2895    0.4479 C   0  0  0  0  0  0  0  0  0  0  0  0
   -3.1470    0.4037   -0.2885 C   0  0  0  0  0  0  0  0  0  0  0  0
   -3.9090   -0.4828   -0.6325 O   0  0  0  0  0  0  0  0  0  0  0  0
    4.5972   -0.1493   -0.4611 H   0  0  0  0  0  0  0  0  0  0  0  0
    3.4008   -0.8136   -1.5823 H   0  0  0  0  0  0  0  0  0  0  0  0
    3.5146    0.9275   -1.3557 H   0  0  0  0  0  0  0  0  0  0  0  0
    2.1958   -0.3730    2.3106 H   0  0  0  0  0  0  0  0  0  0  0  0
    3.9489   -0.4243    1.8105 H   0  0  0  0  0  0  0  0  0  0  0  0
    0.7824   -2.0902   -0.1802 H   0  0  0  0  0  0  0  0  0  0  0  0
    0.1981   -1.2602    1.2628 H   0  0  0  0  0  0  0  0  0  0  0  0
   -1.0333   -1.1799   -1.5318 H   0  0  0  0  0  0  0  0  0  0  0  0
   -1.7599   -1.8478   -0.0811 H   0  0  0  0  0  0  0  0  0  0  0  0
   -1.4736    2.2577    0.4982 H   0  0  0  0  0  0  0  0  0  0  0  0
    0.9304    2.1963    0.0248 H   0  0  0  0  0  0  0  0  0  0  0  0
    0.7051    1.3157    1.5213 H   0  0  0  0  0  0  0  0  0  0  0  0
   -3.5453    1.4105   -0.0598 H   0  0  0  0  0  0  0  0  0  0  0  0
  1  2  1  0  0  0  0
  2  3  2  0  0  0  0
  2  4  1  0  0  0  0
  4  5  1  0  0  0  0
  4  6  1  0  0  0  0
  6  7  1  0  0  0  0
  7  8  1  0  0  0  0
  8  9  2  0  0  0  0
  4 10  1  0  0  0  0
  9 10  1  0  0  0  0
  8 11  1  0  0  0  0
 11 12  2  0  0  0  0
  1 13  1  0  0  0  0
  1 14  1  0  0  0  0
  1 15  1  0  0  0  0
  3 16  1  0  0  0  0
  3 17  1  0  0  0  0
  6 18  1  0  0  0  0
  6 19  1  0  0  0  0
  7 20  1  0  0  0  0
  7 21  1  0  0  0  0
  9 22  1  0  0  0  0
 10 23  1  0  0  0  0
 10 24  1  0  0  0  0
 11 25  1  0  0  0  0
M  END
