 xtb: 6.7.1 (edcfbbe)
          04112511023D

 15 14  0     0  0            999 V2000
   -2.5099   -0.0185   -0.2222 C   0  0  0  0  0  0  0  0  0  0  0  0
   -1.2048    0.0141    0.5623 C   0  0  0  0  0  0  0  0  0  0  0  0
    0.0067   -0.0125   -0.3622 C   0  0  0  0  0  0  0  0  0  0  0  0
    1.1827    0.0214    0.4260 O   0  0  0  0  0  0  0  0  0  0  0  0
    2.3657   -0.0029   -0.3405 C   0  0  0  0  0  0  0  0  0  0  0  0
   -2.5787    0.8417   -0.8836 H   0  0  0  0  0  0  0  0  0  0  0  0
   -2.5698   -0.9216   -0.8246 H   0  0  0  0  0  0  0  0  0  0  0  0
   -3.3561    0.0002    0.4585 H   0  0  0  0  0  0  0  0  0  0  0  0
   -1.1439   -0.8439    1.2332 H   0  0  0  0  0  0  0  0  0  0  0  0
   -1.1513    0.9167    1.1727 H   0  0  0  0  0  0  0  0  0  0  0  0
   -0.0004   -0.9257   -0.9773 H   0  0  0  0  0  0  0  0  0  0  0  0
   -0.0094    0.8548   -1.0405 H   0  0  0  0  0  0  0  0  0  0  0  0
    2.4245   -0.9175   -0.9415 H   0  0  0  0  0  0  0  0  0  0  0  0
    3.1894    0.0260    0.3682 H   0  0  0  0  0  0  0  0  0  0  0  0
    2.4186    0.8652   -1.0074 H   0  0  0  0  0  0  0  0  0  0  0  0
  1  2  1  0  0  0  0
  2  3  1  0  0  0  0
  3  4  1  0  0  0  0
  4  5  1  0  0  0  0
  1  6  1  0  0  0  0
  1  7  1  0  0  0  0
  1  8  1  0  0  0  0
  2  9  1  0  0  0  0
  2 10  1  0  0  0  0
  3 11  1  0  0  0  0
  3 12  1  0  0  0  0
  5 13  1  0  0  0  0
  5 14  1  0  0  0  0
  5 15  1  0  0  0  0
M  END
