 xtb: 6.7.1 (edcfbbe)
          04112511133D

 21 21  0     0  0            999 V2000
   -3.2362    1.1769   -0.1919 C   0  0  0  0  0  0  0  0  0  0  0  0
   -1.9020    0.7279    0.3008 C   0  0  0  0  0  0  0  0  0  0  0  0
   -1.7022    0.0133    1.2590 O   0  0  0  0  0  0  0  0  0  0  0  0
   -0.9136    1.2295   -0.4530 O   0  0  0  0  0  0  0  0  0  0  0  0
    0.4041    0.8502   -0.2319 C   0  0  0  0  0  0  0  0  0  0  0  0
    1.3530    1.8579   -0.1452 C   0  0  0  0  0  0  0  0  0  0  0  0
    2.6842    1.5342    0.0504 C   0  0  0  0  0  0  0  0  0  0  0  0
    3.0681    0.2084    0.1767 C   0  0  0  0  0  0  0  0  0  0  0  0
    2.1212   -0.7962    0.1029 C   0  0  0  0  0  0  0  0  0  0  0  0
    0.7775   -0.4900   -0.1068 C   0  0  0  0  0  0  0  0  0  0  0  0
   -0.2310   -1.5714   -0.2749 C   0  0  0  0  0  0  0  0  0  0  0  0
   -1.0903   -1.5353   -1.1320 O   0  0  0  0  0  0  0  0  0  0  0  0
   -0.1308   -2.6226    0.5274 O   0  0  0  0  0  0  0  0  0  0  0  0
   -3.9546    1.1615    0.6211 H   0  0  0  0  0  0  0  0  0  0  0  0
   -3.5508    0.4669   -0.9561 H   0  0  0  0  0  0  0  0  0  0  0  0
   -3.1592    2.1609   -0.6425 H   0  0  0  0  0  0  0  0  0  0  0  0
    1.0302    2.8819   -0.2386 H   0  0  0  0  0  0  0  0  0  0  0  0
    3.4194    2.3204    0.1072 H   0  0  0  0  0  0  0  0  0  0  0  0
    4.1046   -0.0440    0.3301 H   0  0  0  0  0  0  0  0  0  0  0  0
    2.4262   -1.8296    0.1670 H   0  0  0  0  0  0  0  0  0  0  0  0
    0.5434   -2.5280    1.2255 H   0  0  0  0  0  0  0  0  0  0  0  0
  1  2  1  0  0  0  0
  2  3  2  0  0  0  0
  2  4  1  0  0  0  0
  4  5  1  0  0  0  0
  5  6  4  0  0  0  0
  6  7  4  0  0  0  0
  7  8  4  0  0  0  0
  8  9  4  0  0  0  0
  5 10  4  0  0  0  0
  9 10  4  0  0  0  0
 10 11  1  0  0  0  0
 11 12  2  0  0  0  0
 11 13  1  0  0  0  0
  1 14  1  0  0  0  0
  1 15  1  0  0  0  0
  1 16  1  0  0  0  0
  6 17  1  0  0  0  0
  7 18  1  0  0  0  0
  8 19  1  0  0  0  0
  9 20  1  0  0  0  0
 13 21  1  0  0  0  0
M  END
