 xtb: 6.7.1 (edcfbbe)
          04112512143D

 21 20  0     0  0            999 V2000
    2.7785   -0.0863   -0.2466 C   0  0  0  0  0  0  0  0  0  0  0  0
    1.3656   -0.1205   -0.8188 C   0  0  0  0  0  0  0  0  0  0  0  0
    0.3111   -0.2004    0.2940 C   0  0  0  0  0  0  0  0  0  0  0  0
    0.5997   -0.9987    0.9892 H   0  0  0  0  0  0  0  0  0  0  0  0
   -1.0991   -0.5332   -0.2458 C   0  0  0  0  0  0  0  0  0  0  0  0
   -2.0397   -0.8248    0.9228 C   0  0  0  0  0  0  0  0  0  0  0  0
   -1.6768    0.5819   -1.1172 C   0  0  0  0  0  0  0  0  0  0  0  0
    0.3174    0.9681    1.0917 O   0  0  0  0  0  0  0  0  0  0  0  0
    3.5078    0.0699   -1.0372 H   0  0  0  0  0  0  0  0  0  0  0  0
    3.0069   -1.0228    0.2569 H   0  0  0  0  0  0  0  0  0  0  0  0
    2.8684    0.7195    0.4783 H   0  0  0  0  0  0  0  0  0  0  0  0
    1.1967    0.7815   -1.4106 H   0  0  0  0  0  0  0  0  0  0  0  0
    1.2531   -0.9841   -1.4754 H   0  0  0  0  0  0  0  0  0  0  0  0
   -1.0020   -1.4386   -0.8539 H   0  0  0  0  0  0  0  0  0  0  0  0
   -3.0479   -1.0154    0.5638 H   0  0  0  0  0  0  0  0  0  0  0  0
   -1.6992   -1.6940    1.4805 H   0  0  0  0  0  0  0  0  0  0  0  0
   -2.0629    0.0262    1.6000 H   0  0  0  0  0  0  0  0  0  0  0  0
   -1.8386    1.4828   -0.5296 H   0  0  0  0  0  0  0  0  0  0  0  0
   -2.6377    0.2695   -1.5186 H   0  0  0  0  0  0  0  0  0  0  0  0
   -1.0207    0.8113   -1.9526 H   0  0  0  0  0  0  0  0  0  0  0  0
    0.1339    1.7257    0.5188 H   0  0  0  0  0  0  0  0  0  0  0  0
  1  2  1  0  0  0  0
  2  3  1  0  0  0  0
  3  4  1  0  0  0  0
  3  5  1  0  0  0  0
  5  6  1  0  0  0  0
  5  7  1  0  0  0  0
  3  8  1  0  0  0  0
  1  9  1  0  0  0  0
  1 10  1  0  0  0  0
  1 11  1  0  0  0  0
  2 12  1  0  0  0  0
  2 13  1  0  0  0  0
  5 14  1  0  0  0  0
  6 15  1  0  0  0  0
  6 16  1  0  0  0  0
  6 17  1  0  0  0  0
  7 18  1  0  0  0  0
  7 19  1  0  0  0  0
  7 20  1  0  0  0  0
  8 21  1  0  0  0  0
M  END
