 xtb: 6.7.1 (edcfbbe)
          04112512223D

 16 15  0     0  0            999 V2000
   -1.7273    0.9014   -0.1129 C   0  0  0  0  0  0  0  0  0  0  0  0
   -1.2406   -0.5521   -0.1366 C   0  0  0  0  0  0  0  0  0  0  0  0
    0.0077   -0.8368    0.5451 N   0  0  0  0  0  0  0  0  0  0  0  0
    1.2496   -0.5466   -0.1451 C   0  0  0  0  0  0  0  0  0  0  0  0
    1.7113    0.9154   -0.1587 C   0  0  0  0  0  0  0  0  0  0  0  0
   -1.7477    1.2750    0.9091 H   0  0  0  0  0  0  0  0  0  0  0  0
   -1.0865    1.5480   -0.7055 H   0  0  0  0  0  0  0  0  0  0  0  0
   -2.7342    0.9550   -0.5190 H   0  0  0  0  0  0  0  0  0  0  0  0
   -1.1378   -0.8910   -1.1707 H   0  0  0  0  0  0  0  0  0  0  0  0
   -2.0024   -1.1760    0.3445 H   0  0  0  0  0  0  0  0  0  0  0  0
    0.0095   -0.4059    1.4635 H   0  0  0  0  0  0  0  0  0  0  0  0
    2.0222   -1.1461    0.3494 H   0  0  0  0  0  0  0  0  0  0  0  0
    1.1507   -0.9120   -1.1707 H   0  0  0  0  0  0  0  0  0  0  0  0
    1.7159    1.3188    0.8520 H   0  0  0  0  0  0  0  0  0  0  0  0
    2.7207    0.9743   -0.5576 H   0  0  0  0  0  0  0  0  0  0  0  0
    1.0654    1.5331   -0.7762 H   0  0  0  0  0  0  0  0  0  0  0  0
  1  2  1  0  0  0  0
  2  3  1  0  0  0  0
  3  4  1  0  0  0  0
  4  5  1  0  0  0  0
  1  6  1  0  0  0  0
  1  7  1  0  0  0  0
  1  8  1  0  0  0  0
  2  9  1  0  0  0  0
  2 10  1  0  0  0  0
  3 11  1  0  0  0  0
  4 12  1  0  0  0  0
  4 13  1  0  0  0  0
  5 14  1  0  0  0  0
  5 15  1  0  0  0  0
  5 16  1  0  0  0  0
M  END
