 xtb: 6.7.1 (edcfbbe)
          04112512193D

 17 16  0     0  0            999 V2000
   -2.5337    0.0187    0.9154 C   0  0  0  0  0  0  0  0  0  0  0  0
   -1.7589    0.6137   -0.2613 C   0  0  0  0  0  0  0  0  0  0  0  0
   -0.4308   -0.0831   -0.4146 C   0  0  0  0  0  0  0  0  0  0  0  0
   -0.2940   -1.2693   -0.6306 O   0  0  0  0  0  0  0  0  0  0  0  0
    0.5830    0.7630   -0.2839 O   0  0  0  0  0  0  0  0  0  0  0  0
    1.9234    0.2503   -0.3737 C   0  0  0  0  0  0  0  0  0  0  0  0
    2.4161   -0.2287    0.9832 C   0  0  0  0  0  0  0  0  0  0  0  0
   -2.0113    0.2073    1.8498 H   0  0  0  0  0  0  0  0  0  0  0  0
   -3.5224    0.4636    0.9709 H   0  0  0  0  0  0  0  0  0  0  0  0
   -2.6351   -1.0561    0.7857 H   0  0  0  0  0  0  0  0  0  0  0  0
   -1.5813    1.6781   -0.1169 H   0  0  0  0  0  0  0  0  0  0  0  0
   -2.3236    0.4579   -1.1817 H   0  0  0  0  0  0  0  0  0  0  0  0
    1.9353   -0.5683   -1.0997 H   0  0  0  0  0  0  0  0  0  0  0  0
    2.5159    1.0900   -0.7382 H   0  0  0  0  0  0  0  0  0  0  0  0
    1.8137   -1.0685    1.3225 H   0  0  0  0  0  0  0  0  0  0  0  0
    3.4497   -0.5479    0.8986 H   0  0  0  0  0  0  0  0  0  0  0  0
    2.3463    0.5750    1.7113 H   0  0  0  0  0  0  0  0  0  0  0  0
  1  2  1  0  0  0  0
  2  3  1  0  0  0  0
  3  4  2  0  0  0  0
  3  5  1  0  0  0  0
  5  6  1  0  0  0  0
  6  7  1  0  0  0  0
  1  8  1  0  0  0  0
  1  9  1  0  0  0  0
  1 10  1  0  0  0  0
  2 11  1  0  0  0  0
  2 12  1  0  0  0  0
  6 13  1  0  0  0  0
  6 14  1  0  0  0  0
  7 15  1  0  0  0  0
  7 16  1  0  0  0  0
  7 17  1  0  0  0  0
M  END
