 xtb: 6.7.1 (edcfbbe)
          04112512193D

 17 16  0     0  0            999 V2000
   -2.9910    0.0704    0.0235 C   0  0  0  0  0  0  0  0  0  0  0  0
   -1.6464    0.7352    0.2834 C   0  0  0  0  0  0  0  0  0  0  0  0
   -0.4892   -0.1570   -0.0841 C   0  0  0  0  0  0  0  0  0  0  0  0
   -0.5771   -1.2653   -0.5692 O   0  0  0  0  0  0  0  0  0  0  0  0
    0.6742    0.4241    0.1888 O   0  0  0  0  0  0  0  0  0  0  0  0
    1.8739   -0.3087   -0.1135 C   0  0  0  0  0  0  0  0  0  0  0  0
    3.0620    0.5439    0.2872 C   0  0  0  0  0  0  0  0  0  0  0  0
   -3.0813   -0.8408    0.6089 H   0  0  0  0  0  0  0  0  0  0  0  0
   -3.7993    0.7443    0.2895 H   0  0  0  0  0  0  0  0  0  0  0  0
   -3.0823   -0.1973   -1.0260 H   0  0  0  0  0  0  0  0  0  0  0  0
   -1.5361    1.0019    1.3357 H   0  0  0  0  0  0  0  0  0  0  0  0
   -1.5469    1.6545   -0.2967 H   0  0  0  0  0  0  0  0  0  0  0  0
    1.8482   -1.2558    0.4355 H   0  0  0  0  0  0  0  0  0  0  0  0
    1.8791   -0.5367   -1.1846 H   0  0  0  0  0  0  0  0  0  0  0  0
    3.0501    1.4799   -0.2632 H   0  0  0  0  0  0  0  0  0  0  0  0
    3.0209    0.7624    1.3501 H   0  0  0  0  0  0  0  0  0  0  0  0
    3.9792    0.0085    0.0658 H   0  0  0  0  0  0  0  0  0  0  0  0
  1  2  1  0  0  0  0
  2  3  1  0  0  0  0
  3  4  2  0  0  0  0
  3  5  1  0  0  0  0
  5  6  1  0  0  0  0
  6  7  1  0  0  0  0
  1  8  1  0  0  0  0
  1  9  1  0  0  0  0
  1 10  1  0  0  0  0
  2 11  1  0  0  0  0
  2 12  1  0  0  0  0
  6 13  1  0  0  0  0
  6 14  1  0  0  0  0
  7 15  1  0  0  0  0
  7 16  1  0  0  0  0
  7 17  1  0  0  0  0
M  END
