 xtb: 6.7.1 (edcfbbe)
          04112512223D

 23 22  0     0  0            999 V2000
   -2.4348    0.8147    0.5387 C   0  0  0  0  0  0  0  0  0  0  0  0
   -1.2795   -0.1397    0.2348 C   0  0  0  0  0  0  0  0  0  0  0  0
   -1.6321   -1.0116   -0.9684 C   0  0  0  0  0  0  0  0  0  0  0  0
   -0.0000    0.6721    0.0000 C   0  0  0  0  0  0  0  0  0  0  0  0
    1.2795   -0.1396   -0.2348 C   0  0  0  0  0  0  0  0  0  0  0  0
    2.4347    0.8147   -0.5388 C   0  0  0  0  0  0  0  0  0  0  0  0
    1.6322   -1.0115    0.9684 C   0  0  0  0  0  0  0  0  0  0  0  0
   -2.6150    1.4727   -0.3089 H   0  0  0  0  0  0  0  0  0  0  0  0
   -3.3471    0.2582    0.7407 H   0  0  0  0  0  0  0  0  0  0  0  0
   -2.2085    1.4285    1.4075 H   0  0  0  0  0  0  0  0  0  0  0  0
   -1.1375   -0.7862    1.1064 H   0  0  0  0  0  0  0  0  0  0  0  0
   -2.5851   -1.5099   -0.8049 H   0  0  0  0  0  0  0  0  0  0  0  0
   -1.7134   -0.4020   -1.8660 H   0  0  0  0  0  0  0  0  0  0  0  0
   -0.8772   -1.7751   -1.1357 H   0  0  0  0  0  0  0  0  0  0  0  0
    0.1611    1.3196    0.8662 H   0  0  0  0  0  0  0  0  0  0  0  0
   -0.1612    1.3196   -0.8661 H   0  0  0  0  0  0  0  0  0  0  0  0
    1.1373   -0.7862   -1.1064 H   0  0  0  0  0  0  0  0  0  0  0  0
    2.2083    1.4287   -1.4074 H   0  0  0  0  0  0  0  0  0  0  0  0
    2.6151    1.4726    0.3088 H   0  0  0  0  0  0  0  0  0  0  0  0
    3.3470    0.2583   -0.7411 H   0  0  0  0  0  0  0  0  0  0  0  0
    1.7147   -0.4017    1.8658 H   0  0  0  0  0  0  0  0  0  0  0  0
    0.8769   -1.7743    1.1366 H   0  0  0  0  0  0  0  0  0  0  0  0
    2.5847   -1.5107    0.8043 H   0  0  0  0  0  0  0  0  0  0  0  0
  1  2  1  0  0  0  0
  2  3  1  0  0  0  0
  2  4  1  0  0  0  0
  4  5  1  0  0  0  0
  5  6  1  0  0  0  0
  5  7  1  0  0  0  0
  1  8  1  0  0  0  0
  1  9  1  0  0  0  0
  1 10  1  0  0  0  0
  2 11  1  0  0  0  0
  3 12  1  0  0  0  0
  3 13  1  0  0  0  0
  3 14  1  0  0  0  0
  4 15  1  0  0  0  0
  4 16  1  0  0  0  0
  5 17  1  0  0  0  0
  6 18  1  0  0  0  0
  6 19  1  0  0  0  0
  6 20  1  0  0  0  0
  7 21  1  0  0  0  0
  7 22  1  0  0  0  0
  7 23  1  0  0  0  0
M  END
