 xtb: 6.7.1 (edcfbbe)
          04112512243D

 23 22  0     0  0            999 V2000
    2.2294    0.9704    0.8416 C   0  0  0  0  0  0  0  0  0  0  0  0
    1.4345   -0.3159    0.6405 C   0  0  0  0  0  0  0  0  0  0  0  0
    0.3372   -0.1880   -0.4381 C   0  0  0  0  0  0  0  0  0  0  0  0
    0.4863    0.7567   -0.9730 H   0  0  0  0  0  0  0  0  0  0  0  0
    0.4776   -1.3257   -1.4518 C   0  0  0  0  0  0  0  0  0  0  0  0
   -1.0733   -0.1543    0.1839 C   0  0  0  0  0  0  0  0  0  0  0  0
   -1.2398    1.0480    1.1142 C   0  0  0  0  0  0  0  0  0  0  0  0
   -2.1693   -0.1020   -0.8820 C   0  0  0  0  0  0  0  0  0  0  0  0
    2.9842    0.8324    1.6129 H   0  0  0  0  0  0  0  0  0  0  0  0
    2.7325    1.2514   -0.0812 H   0  0  0  0  0  0  0  0  0  0  0  0
    1.5808    1.7899    1.1397 H   0  0  0  0  0  0  0  0  0  0  0  0
    0.9901   -0.6209    1.5896 H   0  0  0  0  0  0  0  0  0  0  0  0
    2.1320   -1.1050    0.3528 H   0  0  0  0  0  0  0  0  0  0  0  0
   -0.1811   -1.1827   -2.3033 H   0  0  0  0  0  0  0  0  0  0  0  0
    1.4984   -1.3658   -1.8257 H   0  0  0  0  0  0  0  0  0  0  0  0
    0.2438   -2.2808   -0.9855 H   0  0  0  0  0  0  0  0  0  0  0  0
   -1.2086   -1.0706    0.7711 H   0  0  0  0  0  0  0  0  0  0  0  0
   -0.5286    1.0217    1.9343 H   0  0  0  0  0  0  0  0  0  0  0  0
   -2.2412    1.0562    1.5394 H   0  0  0  0  0  0  0  0  0  0  0  0
   -1.0973    1.9735    0.5598 H   0  0  0  0  0  0  0  0  0  0  0  0
   -3.1375    0.0521   -0.4105 H   0  0  0  0  0  0  0  0  0  0  0  0
   -2.2191   -1.0264   -1.4495 H   0  0  0  0  0  0  0  0  0  0  0  0
   -1.9902    0.7223   -1.5694 H   0  0  0  0  0  0  0  0  0  0  0  0
  1  2  1  0  0  0  0
  2  3  1  0  0  0  0
  3  4  1  0  0  0  0
  3  5  1  0  0  0  0
  3  6  1  0  0  0  0
  6  7  1  0  0  0  0
  6  8  1  0  0  0  0
  1  9  1  0  0  0  0
  1 10  1  0  0  0  0
  1 11  1  0  0  0  0
  2 12  1  0  0  0  0
  2 13  1  0  0  0  0
  5 14  1  0  0  0  0
  5 15  1  0  0  0  0
  5 16  1  0  0  0  0
  6 17  1  0  0  0  0
  7 18  1  0  0  0  0
  7 19  1  0  0  0  0
  7 20  1  0  0  0  0
  8 21  1  0  0  0  0
  8 22  1  0  0  0  0
  8 23  1  0  0  0  0
M  END
