 xtb: 6.7.1 (edcfbbe)
          04112511193D

 14 13  0     0  0            999 V2000
   -1.2418    0.2597   -0.2157 C   0  0  0  0  0  0  0  0  0  0  0  0
    0.1574    0.6612    0.2818 C   0  0  0  0  0  0  0  0  0  0  0  0
    1.2399   -0.2335   -0.3492 C   0  0  0  0  0  0  0  0  0  0  0  0
    1.1681   -1.5624    0.1057 O   0  0  0  0  0  0  0  0  0  0  0  0
    0.3273    2.0165   -0.0662 O   0  0  0  0  0  0  0  0  0  0  0  0
   -1.6118   -1.0422    0.1740 O   0  0  0  0  0  0  0  0  0  0  0  0
   -1.2434    0.2700   -1.3086 H   0  0  0  0  0  0  0  0  0  0  0  0
   -1.9620    1.0073    0.1325 H   0  0  0  0  0  0  0  0  0  0  0  0
    0.1998    0.5352    1.3761 H   0  0  0  0  0  0  0  0  0  0  0  0
    2.2341    0.1253   -0.0672 H   0  0  0  0  0  0  0  0  0  0  0  0
    1.1491   -0.1872   -1.4436 H   0  0  0  0  0  0  0  0  0  0  0  0
    0.2626   -1.8842   -0.0472 H   0  0  0  0  0  0  0  0  0  0  0  0
    1.1955    2.3244    0.2296 H   0  0  0  0  0  0  0  0  0  0  0  0
   -1.8413   -1.0461    1.1139 H   0  0  0  0  0  0  0  0  0  0  0  0
  1  2  1  0  0  0  0
  2  3  1  0  0  0  0
  3  4  1  0  0  0  0
  2  5  1  0  0  0  0
  1  6  1  0  0  0  0
  1  7  1  0  0  0  0
  1  8  1  0  0  0  0
  2  9  1  0  0  0  0
  3 10  1  0  0  0  0
  3 11  1  0  0  0  0
  4 12  1  0  0  0  0
  5 13  1  0  0  0  0
  6 14  1  0  0  0  0
M  END
