 xtb: 6.7.1 (edcfbbe)
          04112511403D

 22 23  0     0  0            999 V2000
   -3.3658    0.8148    0.1440 C   0  0  0  0  0  0  0  0  0  0  0  0
   -2.1690    1.5084    0.1437 C   0  0  0  0  0  0  0  0  0  0  0  0
   -0.9677    0.8296    0.0168 C   0  0  0  0  0  0  0  0  0  0  0  0
   -0.9541   -0.5512   -0.1097 C   0  0  0  0  0  0  0  0  0  0  0  0
   -2.1607   -1.2429   -0.1079 C   0  0  0  0  0  0  0  0  0  0  0  0
   -3.3588   -0.5651    0.0175 C   0  0  0  0  0  0  0  0  0  0  0  0
    0.3295   -1.3408   -0.2600 C   0  0  0  0  0  0  0  0  0  0  0  0
    1.5187   -0.5476   -0.1146 N   0  0  0  0  0  0  0  0  0  0  0  0
    2.1645    0.1395   -1.1018 C   0  0  0  0  0  0  0  0  0  0  0  0
    3.1964    0.7946   -0.4948 C   0  0  0  0  0  0  0  0  0  0  0  0
    3.1934    0.5311    0.8411 N   0  0  0  0  0  0  0  0  0  0  0  0
    2.1750   -0.2680    1.0315 C   0  0  0  0  0  0  0  0  0  0  0  0
   -4.3001    1.3459    0.2429 H   0  0  0  0  0  0  0  0  0  0  0  0
   -2.1648    2.5835    0.2423 H   0  0  0  0  0  0  0  0  0  0  0  0
   -0.0419    1.3864    0.0197 H   0  0  0  0  0  0  0  0  0  0  0  0
   -2.1566   -2.3185   -0.2056 H   0  0  0  0  0  0  0  0  0  0  0  0
   -4.2886   -1.1132    0.0181 H   0  0  0  0  0  0  0  0  0  0  0  0
    0.3505   -2.1346    0.4926 H   0  0  0  0  0  0  0  0  0  0  0  0
    0.3459   -1.8084   -1.2498 H   0  0  0  0  0  0  0  0  0  0  0  0
    1.8480    0.1038   -2.1232 H   0  0  0  0  0  0  0  0  0  0  0  0
    3.9399    1.4342   -0.9262 H   0  0  0  0  0  0  0  0  0  0  0  0
    1.8880   -0.6678    1.9831 H   0  0  0  0  0  0  0  0  0  0  0  0
  1  2  4  0  0  0  0
  2  3  4  0  0  0  0
  3  4  4  0  0  0  0
  4  5  4  0  0  0  0
  1  6  4  0  0  0  0
  5  6  4  0  0  0  0
  4  7  1  0  0  0  0
  7  8  1  0  0  0  0
  8  9  4  0  0  0  0
  9 10  2  0  0  0  0
 10 11  4  0  0  0  0
  8 12  4  0  0  0  0
 11 12  2  0  0  0  0
  1 13  1  0  0  0  0
  2 14  1  0  0  0  0
  3 15  1  0  0  0  0
  5 16  1  0  0  0  0
  6 17  1  0  0  0  0
  7 18  1  0  0  0  0
  7 19  1  0  0  0  0
  9 20  1  0  0  0  0
 10 21  1  0  0  0  0
 12 22  1  0  0  0  0
M  END
