 xtb: 6.7.1 (edcfbbe)
          04112511493D

 21 20  0     0  0            999 V2000
    1.7910    0.5632   -1.0890 C   0  0  0  0  0  0  0  0  0  0  0  0
    1.0680   -0.1799    0.0304 C   0  0  0  0  0  0  0  0  0  0  0  0
    0.6857   -1.1324   -0.3647 H   0  0  0  0  0  0  0  0  0  0  0  0
   -0.0919    0.6437    0.6237 C   0  0  0  0  0  0  0  0  0  0  0  0
   -1.5019    0.2801    0.1319 C   0  0  0  0  0  0  0  0  0  0  0  0
   -1.6449    0.4065   -1.3829 C   0  0  0  0  0  0  0  0  0  0  0  0
   -1.9303   -1.1118    0.5960 C   0  0  0  0  0  0  0  0  0  0  0  0
    2.0541   -0.4673    1.0160 O   0  0  0  0  0  0  0  0  0  0  0  0
    1.1034    0.8161   -1.8880 H   0  0  0  0  0  0  0  0  0  0  0  0
    2.2331    1.4725   -0.6896 H   0  0  0  0  0  0  0  0  0  0  0  0
    2.5897   -0.0594   -1.4841 H   0  0  0  0  0  0  0  0  0  0  0  0
   -0.0739    0.5224    1.7099 H   0  0  0  0  0  0  0  0  0  0  0  0
    0.0918    1.7004    0.4200 H   0  0  0  0  0  0  0  0  0  0  0  0
   -2.1827    1.0057    0.5932 H   0  0  0  0  0  0  0  0  0  0  0  0
   -2.6813    0.2494   -1.6730 H   0  0  0  0  0  0  0  0  0  0  0  0
   -1.0345   -0.3338   -1.8935 H   0  0  0  0  0  0  0  0  0  0  0  0
   -1.3445    1.3976   -1.7141 H   0  0  0  0  0  0  0  0  0  0  0  0
   -1.8653   -1.1925    1.6785 H   0  0  0  0  0  0  0  0  0  0  0  0
   -2.9596   -1.3020    0.3013 H   0  0  0  0  0  0  0  0  0  0  0  0
   -1.3068   -1.8838    0.1521 H   0  0  0  0  0  0  0  0  0  0  0  0
    1.6652   -1.0146    1.7104 H   0  0  0  0  0  0  0  0  0  0  0  0
  1  2  1  0  0  0  0
  2  3  1  0  0  0  0
  2  4  1  0  0  0  0
  4  5  1  0  0  0  0
  5  6  1  0  0  0  0
  5  7  1  0  0  0  0
  2  8  1  0  0  0  0
  1  9  1  0  0  0  0
  1 10  1  0  0  0  0
  1 11  1  0  0  0  0
  4 12  1  0  0  0  0
  4 13  1  0  0  0  0
  5 14  1  0  0  0  0
  6 15  1  0  0  0  0
  6 16  1  0  0  0  0
  6 17  1  0  0  0  0
  7 18  1  0  0  0  0
  7 19  1  0  0  0  0
  7 20  1  0  0  0  0
  8 21  1  0  0  0  0
M  END
