 xtb: 6.7.1 (edcfbbe)
          04112511203D

 21 20  0     0  0            999 V2000
   -2.3154   -0.1205   -1.0263 C   0  0  0  0  0  0  0  0  0  0  0  0
   -1.7697    0.6650    0.1606 C   0  0  0  0  0  0  0  0  0  0  0  0
   -0.5924    0.0127    0.8909 C   0  0  0  0  0  0  0  0  0  0  0  0
    0.7650   -0.0930    0.1585 C   0  0  0  0  0  0  0  0  0  0  0  0
    1.0984    1.1845   -0.6177 C   0  0  0  0  0  0  0  0  0  0  0  0
    0.8387   -1.3131   -0.7613 C   0  0  0  0  0  0  0  0  0  0  0  0
    1.7793   -0.3277    1.1421 O   0  0  0  0  0  0  0  0  0  0  0  0
   -3.2673    0.3014   -1.3412 H   0  0  0  0  0  0  0  0  0  0  0  0
   -2.4748   -1.1614   -0.7555 H   0  0  0  0  0  0  0  0  0  0  0  0
   -1.6383   -0.0818   -1.8748 H   0  0  0  0  0  0  0  0  0  0  0  0
   -1.4961    1.6697   -0.1633 H   0  0  0  0  0  0  0  0  0  0  0  0
   -2.5721    0.7707    0.8954 H   0  0  0  0  0  0  0  0  0  0  0  0
   -0.4170    0.5974    1.7993 H   0  0  0  0  0  0  0  0  0  0  0  0
   -0.8797   -0.9916    1.2105 H   0  0  0  0  0  0  0  0  0  0  0  0
    2.1286    1.1341   -0.9634 H   0  0  0  0  0  0  0  0  0  0  0  0
    0.9863    2.0604    0.0183 H   0  0  0  0  0  0  0  0  0  0  0  0
    0.4496    1.2898   -1.4809 H   0  0  0  0  0  0  0  0  0  0  0  0
    0.1275   -1.2398   -1.5743 H   0  0  0  0  0  0  0  0  0  0  0  0
    0.6384   -2.2140   -0.1874 H   0  0  0  0  0  0  0  0  0  0  0  0
    1.8434   -1.3885   -1.1700 H   0  0  0  0  0  0  0  0  0  0  0  0
    1.8683    0.4560    1.7006 H   0  0  0  0  0  0  0  0  0  0  0  0
  1  2  1  0  0  0  0
  2  3  1  0  0  0  0
  3  4  1  0  0  0  0
  4  5  1  0  0  0  0
  4  6  1  0  0  0  0
  4  7  1  0  0  0  0
  1  8  1  0  0  0  0
  1  9  1  0  0  0  0
  1 10  1  0  0  0  0
  2 11  1  0  0  0  0
  2 12  1  0  0  0  0
  3 13  1  0  0  0  0
  3 14  1  0  0  0  0
  5 15  1  0  0  0  0
  5 16  1  0  0  0  0
  5 17  1  0  0  0  0
  6 18  1  0  0  0  0
  6 19  1  0  0  0  0
  6 20  1  0  0  0  0
  7 21  1  0  0  0  0
M  END
