 xtb: 6.7.1 (edcfbbe)
          04112511023D

 15 14  0     0  0            999 V2000
   -2.4250    0.1018   -0.1336 C   0  0  0  0  0  0  0  0  0  0  0  0
   -1.0007    0.4146    0.3073 C   0  0  0  0  0  0  0  0  0  0  0  0
   -0.0179   -0.6286   -0.2305 C   0  0  0  0  0  0  0  0  0  0  0  0
    1.2956   -0.5119    0.2871 O   0  0  0  0  0  0  0  0  0  0  0  0
    2.0234    0.5995   -0.1933 C   0  0  0  0  0  0  0  0  0  0  0  0
   -3.1102    0.8544    0.2467 H   0  0  0  0  0  0  0  0  0  0  0  0
   -2.4927    0.0891   -1.2188 H   0  0  0  0  0  0  0  0  0  0  0  0
   -2.7354   -0.8702    0.2414 H   0  0  0  0  0  0  0  0  0  0  0  0
   -0.9376    0.4194    1.3972 H   0  0  0  0  0  0  0  0  0  0  0  0
   -0.7191    1.4056   -0.0532 H   0  0  0  0  0  0  0  0  0  0  0  0
   -0.3404   -1.6284    0.0714 H   0  0  0  0  0  0  0  0  0  0  0  0
    0.0122   -0.5842   -1.3293 H   0  0  0  0  0  0  0  0  0  0  0  0
    3.0412    0.4682    0.1666 H   0  0  0  0  0  0  0  0  0  0  0  0
    1.6216    1.5419    0.1895 H   0  0  0  0  0  0  0  0  0  0  0  0
    2.0192    0.6224   -1.2885 H   0  0  0  0  0  0  0  0  0  0  0  0
  1  2  1  0  0  0  0
  2  3  1  0  0  0  0
  3  4  1  0  0  0  0
  4  5  1  0  0  0  0
  1  6  1  0  0  0  0
  1  7  1  0  0  0  0
  1  8  1  0  0  0  0
  2  9  1  0  0  0  0
  2 10  1  0  0  0  0
  3 11  1  0  0  0  0
  3 12  1  0  0  0  0
  5 13  1  0  0  0  0
  5 14  1  0  0  0  0
  5 15  1  0  0  0  0
M  END
