 xtb: 6.7.1 (edcfbbe)
          04112511493D

 12 11  0     0  0            999 V2000
   -1.9575    1.4098    1.1897 C   0  0  0  0  0  0  0  0  0  0  0  0
   -1.6775    0.0313    0.8569 O   0  0  0  0  0  0  0  0  0  0  0  0
   -0.8453   -0.1998   -0.1574 C   0  0  0  0  0  0  0  0  0  0  0  0
    0.5432    0.4712   -0.0996 C   0  0  0  0  0  0  0  0  0  0  0  0
    1.2670    0.1169    1.4772 Cl  0  0  0  0  0  0  0  0  0  0  0  0
    1.5584   -0.1578   -1.4142 Cl  0  0  0  0  0  0  0  0  0  0  0  0
   -0.7096   -1.5429   -0.2577 F   0  0  0  0  0  0  0  0  0  0  0  0
   -1.4203    0.1731   -1.3637 F   0  0  0  0  0  0  0  0  0  0  0  0
   -1.1039    1.8564    1.6978 H   0  0  0  0  0  0  0  0  0  0  0  0
   -2.8073    1.3484    1.8627 H   0  0  0  0  0  0  0  0  0  0  0  0
   -2.2242    1.9686    0.2933 H   0  0  0  0  0  0  0  0  0  0  0  0
    0.4567    1.5527   -0.2233 H   0  0  0  0  0  0  0  0  0  0  0  0
  1  2  1  0  0  0  0
  2  3  1  0  0  0  0
  3  4  1  0  0  0  0
  4  5  1  0  0  0  0
  4  6  1  0  0  0  0
  3  7  1  0  0  0  0
  3  8  1  0  0  0  0
  1  9  1  0  0  0  0
  1 10  1  0  0  0  0
  1 11  1  0  0  0  0
  4 12  1  0  0  0  0
M  END
