 xtb: 6.7.1 (edcfbbe)
          04112512193D

 17 16  0     0  0            999 V2000
   -2.4111    0.2602    1.0251 C   0  0  0  0  0  0  0  0  0  0  0  0
   -1.7886    0.6146   -0.3288 C   0  0  0  0  0  0  0  0  0  0  0  0
   -0.5276   -0.1867   -0.5206 C   0  0  0  0  0  0  0  0  0  0  0  0
   -0.4487   -1.2222   -1.1508 O   0  0  0  0  0  0  0  0  0  0  0  0
    0.5005    0.3572    0.1125 O   0  0  0  0  0  0  0  0  0  0  0  0
    1.7633   -0.3273    0.0567 C   0  0  0  0  0  0  0  0  0  0  0  0
    2.8016    0.5388    0.7429 C   0  0  0  0  0  0  0  0  0  0  0  0
   -2.6415   -0.8017    1.0682 H   0  0  0  0  0  0  0  0  0  0  0  0
   -1.7229    0.5030    1.8303 H   0  0  0  0  0  0  0  0  0  0  0  0
   -3.3291    0.8231    1.1643 H   0  0  0  0  0  0  0  0  0  0  0  0
   -1.5384    1.6742   -0.3531 H   0  0  0  0  0  0  0  0  0  0  0  0
   -2.4785    0.3708   -1.1356 H   0  0  0  0  0  0  0  0  0  0  0  0
    1.6518   -1.2974    0.5519 H   0  0  0  0  0  0  0  0  0  0  0  0
    2.0119   -0.5086   -0.9942 H   0  0  0  0  0  0  0  0  0  0  0  0
    2.8793    1.4971    0.2380 H   0  0  0  0  0  0  0  0  0  0  0  0
    2.5184    0.7099    1.7771 H   0  0  0  0  0  0  0  0  0  0  0  0
    3.7637    0.0383    0.7124 H   0  0  0  0  0  0  0  0  0  0  0  0
  1  2  1  0  0  0  0
  2  3  1  0  0  0  0
  3  4  2  0  0  0  0
  3  5  1  0  0  0  0
  5  6  1  0  0  0  0
  6  7  1  0  0  0  0
  1  8  1  0  0  0  0
  1  9  1  0  0  0  0
  1 10  1  0  0  0  0
  2 11  1  0  0  0  0
  2 12  1  0  0  0  0
  6 13  1  0  0  0  0
  6 14  1  0  0  0  0
  7 15  1  0  0  0  0
  7 16  1  0  0  0  0
  7 17  1  0  0  0  0
M  END
