 xtb: 6.7.1 (edcfbbe)
          04112512153D

 21 20  0     0  0            999 V2000
    2.0077   -0.9846    0.2229 C   0  0  0  0  0  0  0  0  0  0  0  0
    1.2155    0.1240    0.9091 C   0  0  0  0  0  0  0  0  0  0  0  0
    0.1685    0.8284    0.0280 C   0  0  0  0  0  0  0  0  0  0  0  0
   -0.0498    1.7946    0.5194 H   0  0  0  0  0  0  0  0  0  0  0  0
   -1.1958    0.1193   -0.1384 C   0  0  0  0  0  0  0  0  0  0  0  0
   -1.0977   -1.2521   -0.8016 C   0  0  0  0  0  0  0  0  0  0  0  0
   -1.9489    0.0278    1.1866 C   0  0  0  0  0  0  0  0  0  0  0  0
    0.7673    1.0880   -1.2311 O   0  0  0  0  0  0  0  0  0  0  0  0
    1.4026   -1.8669    0.0466 H   0  0  0  0  0  0  0  0  0  0  0  0
    2.8503   -1.2669    0.8498 H   0  0  0  0  0  0  0  0  0  0  0  0
    2.3876   -0.6272   -0.7302 H   0  0  0  0  0  0  0  0  0  0  0  0
    0.7231   -0.2587    1.8022 H   0  0  0  0  0  0  0  0  0  0  0  0
    1.9256    0.8917    1.2248 H   0  0  0  0  0  0  0  0  0  0  0  0
   -1.7791    0.7688   -0.8057 H   0  0  0  0  0  0  0  0  0  0  0  0
   -0.7568   -1.9999   -0.0913 H   0  0  0  0  0  0  0  0  0  0  0  0
   -2.0751   -1.5570   -1.1692 H   0  0  0  0  0  0  0  0  0  0  0  0
   -0.4059   -1.2177   -1.6394 H   0  0  0  0  0  0  0  0  0  0  0  0
   -2.0120    1.0031    1.6639 H   0  0  0  0  0  0  0  0  0  0  0  0
   -1.4551   -0.6595    1.8684 H   0  0  0  0  0  0  0  0  0  0  0  0
   -2.9578   -0.3372    1.0113 H   0  0  0  0  0  0  0  0  0  0  0  0
    0.1593    1.6120   -1.7686 H   0  0  0  0  0  0  0  0  0  0  0  0
  1  2  1  0  0  0  0
  2  3  1  0  0  0  0
  3  4  1  0  0  0  0
  3  5  1  0  0  0  0
  5  6  1  0  0  0  0
  5  7  1  0  0  0  0
  3  8  1  0  0  0  0
  1  9  1  0  0  0  0
  1 10  1  0  0  0  0
  1 11  1  0  0  0  0
  2 12  1  0  0  0  0
  2 13  1  0  0  0  0
  5 14  1  0  0  0  0
  6 15  1  0  0  0  0
  6 16  1  0  0  0  0
  6 17  1  0  0  0  0
  7 18  1  0  0  0  0
  7 19  1  0  0  0  0
  7 20  1  0  0  0  0
  8 21  1  0  0  0  0
M  END
