 xtb: 6.7.1 (edcfbbe)
          04112511493D

 21 20  0     0  0            999 V2000
    1.9216   -0.7822   -0.8060 C   0  0  0  0  0  0  0  0  0  0  0  0
    1.2042   -0.1049    0.3607 C   0  0  0  0  0  0  0  0  0  0  0  0
    0.9321   -0.8549    1.1122 H   0  0  0  0  0  0  0  0  0  0  0  0
   -0.0611    0.6529   -0.0891 C   0  0  0  0  0  0  0  0  0  0  0  0
   -1.3792   -0.0754    0.1979 C   0  0  0  0  0  0  0  0  0  0  0  0
   -2.5537    0.8465   -0.1297 C   0  0  0  0  0  0  0  0  0  0  0  0
   -1.5050   -1.3759   -0.5919 C   0  0  0  0  0  0  0  0  0  0  0  0
    2.0948    0.7560    1.0572 O   0  0  0  0  0  0  0  0  0  0  0  0
    2.8110   -1.2941   -0.4454 H   0  0  0  0  0  0  0  0  0  0  0  0
    1.2704   -1.5046   -1.2862 H   0  0  0  0  0  0  0  0  0  0  0  0
    2.2214   -0.0393   -1.5428 H   0  0  0  0  0  0  0  0  0  0  0  0
   -0.0805    1.6024    0.4518 H   0  0  0  0  0  0  0  0  0  0  0  0
    0.0010    0.8752   -1.1565 H   0  0  0  0  0  0  0  0  0  0  0  0
   -1.4129   -0.3127    1.2675 H   0  0  0  0  0  0  0  0  0  0  0  0
   -3.4971    0.3562    0.0977 H   0  0  0  0  0  0  0  0  0  0  0  0
   -2.5474    1.1052   -1.1863 H   0  0  0  0  0  0  0  0  0  0  0  0
   -2.4967    1.7647    0.4501 H   0  0  0  0  0  0  0  0  0  0  0  0
   -1.4129   -1.1819   -1.6583 H   0  0  0  0  0  0  0  0  0  0  0  0
   -0.7390   -2.0876   -0.2968 H   0  0  0  0  0  0  0  0  0  0  0  0
   -2.4761   -1.8306   -0.4099 H   0  0  0  0  0  0  0  0  0  0  0  0
    2.4564    1.3988    0.4309 H   0  0  0  0  0  0  0  0  0  0  0  0
  1  2  1  0  0  0  0
  2  3  1  0  0  0  0
  2  4  1  0  0  0  0
  4  5  1  0  0  0  0
  5  6  1  0  0  0  0
  5  7  1  0  0  0  0
  2  8  1  0  0  0  0
  1  9  1  0  0  0  0
  1 10  1  0  0  0  0
  1 11  1  0  0  0  0
  4 12  1  0  0  0  0
  4 13  1  0  0  0  0
  5 14  1  0  0  0  0
  6 15  1  0  0  0  0
  6 16  1  0  0  0  0
  6 17  1  0  0  0  0
  7 18  1  0  0  0  0
  7 19  1  0  0  0  0
  7 20  1  0  0  0  0
  8 21  1  0  0  0  0
M  END
