 xtb: 6.7.1 (edcfbbe)
          04112511223D

 21 21  0     0  0            999 V2000
   -3.6603    1.1894   -0.8114 C   0  0  0  0  0  0  0  0  0  0  0  0
   -3.0310   -0.1341   -0.4078 C   0  0  0  0  0  0  0  0  0  0  0  0
   -1.6046   -0.0552   -0.5561 O   0  0  0  0  0  0  0  0  0  0  0  0
   -0.8284   -0.3001    0.4948 C   0  0  0  0  0  0  0  0  0  0  0  0
   -1.2601   -0.6179    1.5901 O   0  0  0  0  0  0  0  0  0  0  0  0
    0.6106   -0.1519    0.1913 C   0  0  0  0  0  0  0  0  0  0  0  0
    1.0553    0.2652   -1.0623 C   0  0  0  0  0  0  0  0  0  0  0  0
    2.4107    0.3926   -1.3012 C   0  0  0  0  0  0  0  0  0  0  0  0
    3.3262    0.1057   -0.2998 C   0  0  0  0  0  0  0  0  0  0  0  0
    2.8877   -0.3101    0.9482 C   0  0  0  0  0  0  0  0  0  0  0  0
    1.5344   -0.4382    1.1955 C   0  0  0  0  0  0  0  0  0  0  0  0
   -3.3937    1.4314   -1.8361 H   0  0  0  0  0  0  0  0  0  0  0  0
   -4.7395    1.1104   -0.7309 H   0  0  0  0  0  0  0  0  0  0  0  0
   -3.3126    1.9868   -0.1597 H   0  0  0  0  0  0  0  0  0  0  0  0
   -3.3642   -0.9425   -1.0636 H   0  0  0  0  0  0  0  0  0  0  0  0
   -3.2598   -0.3871    0.6321 H   0  0  0  0  0  0  0  0  0  0  0  0
    0.3350    0.4855   -1.8337 H   0  0  0  0  0  0  0  0  0  0  0  0
    2.7555    0.7167   -2.2707 H   0  0  0  0  0  0  0  0  0  0  0  0
    4.3831    0.2065   -0.4919 H   0  0  0  0  0  0  0  0  0  0  0  0
    3.5998   -0.5340    1.7270 H   0  0  0  0  0  0  0  0  0  0  0  0
    1.1656   -0.7595    2.1580 H   0  0  0  0  0  0  0  0  0  0  0  0
  1  2  1  0  0  0  0
  2  3  1  0  0  0  0
  3  4  1  0  0  0  0
  4  5  2  0  0  0  0
  4  6  1  0  0  0  0
  6  7  4  0  0  0  0
  7  8  4  0  0  0  0
  8  9  4  0  0  0  0
  9 10  4  0  0  0  0
  6 11  4  0  0  0  0
 10 11  4  0  0  0  0
  1 12  1  0  0  0  0
  1 13  1  0  0  0  0
  1 14  1  0  0  0  0
  2 15  1  0  0  0  0
  2 16  1  0  0  0  0
  7 17  1  0  0  0  0
  8 18  1  0  0  0  0
  9 19  1  0  0  0  0
 10 20  1  0  0  0  0
 11 21  1  0  0  0  0
M  END
