 xtb: 6.7.1 (edcfbbe)
          04112512143D

 21 20  0     0  0            999 V2000
    2.1411   -0.3915    1.2169 C   0  0  0  0  0  0  0  0  0  0  0  0
    1.3376   -0.5033   -0.0744 C   0  0  0  0  0  0  0  0  0  0  0  0
    0.2868    0.6129   -0.2334 C   0  0  0  0  0  0  0  0  0  0  0  0
    0.5493    1.4378    0.4404 H   0  0  0  0  0  0  0  0  0  0  0  0
   -1.1662    0.1926    0.0880 C   0  0  0  0  0  0  0  0  0  0  0  0
   -1.7092   -0.8774   -0.8600 C   0  0  0  0  0  0  0  0  0  0  0  0
   -1.3071   -0.2627    1.5380 C   0  0  0  0  0  0  0  0  0  0  0  0
    0.3601    1.2064   -1.5217 O   0  0  0  0  0  0  0  0  0  0  0  0
    2.6615    0.5627    1.2572 H   0  0  0  0  0  0  0  0  0  0  0  0
    2.8805   -1.1875    1.2652 H   0  0  0  0  0  0  0  0  0  0  0  0
    1.4967   -0.4675    2.0879 H   0  0  0  0  0  0  0  0  0  0  0  0
    2.0288   -0.4264   -0.9170 H   0  0  0  0  0  0  0  0  0  0  0  0
    0.8634   -1.4836   -0.1225 H   0  0  0  0  0  0  0  0  0  0  0  0
   -1.7713    1.0970   -0.0505 H   0  0  0  0  0  0  0  0  0  0  0  0
   -2.7385   -1.1053   -0.5940 H   0  0  0  0  0  0  0  0  0  0  0  0
   -1.7021   -0.5301   -1.8903 H   0  0  0  0  0  0  0  0  0  0  0  0
   -1.1338   -1.7975   -0.7940 H   0  0  0  0  0  0  0  0  0  0  0  0
   -2.3563   -0.4209    1.7754 H   0  0  0  0  0  0  0  0  0  0  0  0
   -0.9121    0.4890    2.2169 H   0  0  0  0  0  0  0  0  0  0  0  0
   -0.7774   -1.1972    1.7021 H   0  0  0  0  0  0  0  0  0  0  0  0
    0.1650    0.5298   -2.1843 H   0  0  0  0  0  0  0  0  0  0  0  0
  1  2  1  0  0  0  0
  2  3  1  0  0  0  0
  3  4  1  0  0  0  0
  3  5  1  0  0  0  0
  5  6  1  0  0  0  0
  5  7  1  0  0  0  0
  3  8  1  0  0  0  0
  1  9  1  0  0  0  0
  1 10  1  0  0  0  0
  1 11  1  0  0  0  0
  2 12  1  0  0  0  0
  2 13  1  0  0  0  0
  5 14  1  0  0  0  0
  6 15  1  0  0  0  0
  6 16  1  0  0  0  0
  6 17  1  0  0  0  0
  7 18  1  0  0  0  0
  7 19  1  0  0  0  0
  7 20  1  0  0  0  0
  8 21  1  0  0  0  0
M  END
