 xtb: 6.7.1 (edcfbbe)
          04112511203D

 21 20  0     0  0            999 V2000
   -2.3487   -0.3228    0.6782 C   0  0  0  0  0  0  0  0  0  0  0  0
   -1.7459    0.0054   -0.6821 C   0  0  0  0  0  0  0  0  0  0  0  0
   -0.4411    0.8000   -0.5949 C   0  0  0  0  0  0  0  0  0  0  0  0
    0.7896    0.0632   -0.0305 C   0  0  0  0  0  0  0  0  0  0  0  0
    2.0307    0.9365   -0.2730 C   0  0  0  0  0  0  0  0  0  0  0  0
    0.9973   -1.3051   -0.6911 C   0  0  0  0  0  0  0  0  0  0  0  0
    0.5891   -0.0920    1.3716 O   0  0  0  0  0  0  0  0  0  0  0  0
   -3.2682   -0.8916    0.5584 H   0  0  0  0  0  0  0  0  0  0  0  0
   -2.5749    0.5920    1.2212 H   0  0  0  0  0  0  0  0  0  0  0  0
   -1.6520   -0.9013    1.2773 H   0  0  0  0  0  0  0  0  0  0  0  0
   -1.5835   -0.9146   -1.2445 H   0  0  0  0  0  0  0  0  0  0  0  0
   -2.4616    0.6089   -1.2464 H   0  0  0  0  0  0  0  0  0  0  0  0
   -0.1832    1.1473   -1.5969 H   0  0  0  0  0  0  0  0  0  0  0  0
   -0.6080    1.6764    0.0351 H   0  0  0  0  0  0  0  0  0  0  0  0
    2.9131    0.4706    0.1614 H   0  0  0  0  0  0  0  0  0  0  0  0
    1.8933    1.9128    0.1860 H   0  0  0  0  0  0  0  0  0  0  0  0
    2.1989    1.0680   -1.3377 H   0  0  0  0  0  0  0  0  0  0  0  0
    1.9633   -1.7165   -0.4051 H   0  0  0  0  0  0  0  0  0  0  0  0
    0.9690   -1.2071   -1.7723 H   0  0  0  0  0  0  0  0  0  0  0  0
    0.2224   -1.9983   -0.3757 H   0  0  0  0  0  0  0  0  0  0  0  0
    1.3773   -0.4983    1.7557 H   0  0  0  0  0  0  0  0  0  0  0  0
  1  2  1  0  0  0  0
  2  3  1  0  0  0  0
  3  4  1  0  0  0  0
  4  5  1  0  0  0  0
  4  6  1  0  0  0  0
  4  7  1  0  0  0  0
  1  8  1  0  0  0  0
  1  9  1  0  0  0  0
  1 10  1  0  0  0  0
  2 11  1  0  0  0  0
  2 12  1  0  0  0  0
  3 13  1  0  0  0  0
  3 14  1  0  0  0  0
  5 15  1  0  0  0  0
  5 16  1  0  0  0  0
  5 17  1  0  0  0  0
  6 18  1  0  0  0  0
  6 19  1  0  0  0  0
  6 20  1  0  0  0  0
  7 21  1  0  0  0  0
M  END
