 xtb: 6.7.1 (edcfbbe)
          04112511233D

 26 25  0     0  0            999 V2000
   -2.5047    0.6418    0.5195 C   0  0  0  0  0  0  0  0  0  0  0  0
   -1.2633   -0.2518    0.4770 C   0  0  0  0  0  0  0  0  0  0  0  0
   -1.6242   -1.5331   -0.2773 C   0  0  0  0  0  0  0  0  0  0  0  0
   -0.0483    0.4540   -0.1668 C   0  0  0  0  0  0  0  0  0  0  0  0
    0.1491    1.8528    0.4211 C   0  0  0  0  0  0  0  0  0  0  0  0
    1.2195   -0.4448   -0.0698 C   0  0  0  0  0  0  0  0  0  0  0  0
    1.6270   -0.9420   -1.4584 C   0  0  0  0  0  0  0  0  0  0  0  0
    2.4373    0.2021    0.5926 C   0  0  0  0  0  0  0  0  0  0  0  0
   -3.3637    0.0621    0.8509 H   0  0  0  0  0  0  0  0  0  0  0  0
   -2.3789    1.4717    1.2081 H   0  0  0  0  0  0  0  0  0  0  0  0
   -2.7230    1.0356   -0.4710 H   0  0  0  0  0  0  0  0  0  0  0  0
   -0.9968   -0.5151    1.5078 H   0  0  0  0  0  0  0  0  0  0  0  0
   -2.4696   -2.0231    0.2010 H   0  0  0  0  0  0  0  0  0  0  0  0
   -0.7985   -2.2380   -0.2990 H   0  0  0  0  0  0  0  0  0  0  0  0
   -1.9032   -1.2965   -1.3022 H   0  0  0  0  0  0  0  0  0  0  0  0
   -0.2791    0.5884   -1.2298 H   0  0  0  0  0  0  0  0  0  0  0  0
    1.0438    2.3165    0.0177 H   0  0  0  0  0  0  0  0  0  0  0  0
    0.2319    1.8161    1.5047 H   0  0  0  0  0  0  0  0  0  0  0  0
   -0.6912    2.4902    0.1621 H   0  0  0  0  0  0  0  0  0  0  0  0
    0.9678   -1.3169    0.5429 H   0  0  0  0  0  0  0  0  0  0  0  0
    2.4689   -1.6276   -1.3861 H   0  0  0  0  0  0  0  0  0  0  0  0
    0.8055   -1.4605   -1.9459 H   0  0  0  0  0  0  0  0  0  0  0  0
    1.9239   -0.1031   -2.0848 H   0  0  0  0  0  0  0  0  0  0  0  0
    3.2251   -0.5427    0.6893 H   0  0  0  0  0  0  0  0  0  0  0  0
    2.2016    0.5715    1.5861 H   0  0  0  0  0  0  0  0  0  0  0  0
    2.8271    1.0214   -0.0059 H   0  0  0  0  0  0  0  0  0  0  0  0
  1  2  1  0  0  0  0
  2  3  1  0  0  0  0
  2  4  1  0  0  0  0
  4  5  1  0  0  0  0
  4  6  1  0  0  0  0
  6  7  1  0  0  0  0
  6  8  1  0  0  0  0
  1  9  1  0  0  0  0
  1 10  1  0  0  0  0
  1 11  1  0  0  0  0
  2 12  1  0  0  0  0
  3 13  1  0  0  0  0
  3 14  1  0  0  0  0
  3 15  1  0  0  0  0
  4 16  1  0  0  0  0
  5 17  1  0  0  0  0
  5 18  1  0  0  0  0
  5 19  1  0  0  0  0
  6 20  1  0  0  0  0
  7 21  1  0  0  0  0
  7 22  1  0  0  0  0
  7 23  1  0  0  0  0
  8 24  1  0  0  0  0
  8 25  1  0  0  0  0
  8 26  1  0  0  0  0
M  END
