 xtb: 6.7.1 (edcfbbe)
          04112512153D

 21 20  0     0  0            999 V2000
    2.0921   -1.3458   -0.1968 C   0  0  0  0  0  0  0  0  0  0  0  0
    1.6577    0.1067   -0.3277 C   0  0  0  0  0  0  0  0  0  0  0  0
    0.3266    0.4376    0.3595 C   0  0  0  0  0  0  0  0  0  0  0  0
    0.3971    0.1397    1.4178 H   0  0  0  0  0  0  0  0  0  0  0  0
   -0.8761   -0.3059   -0.2867 C   0  0  0  0  0  0  0  0  0  0  0  0
   -1.2814   -1.5134    0.5580 C   0  0  0  0  0  0  0  0  0  0  0  0
   -2.0904    0.6019   -0.4893 C   0  0  0  0  0  0  0  0  0  0  0  0
    0.2187    1.8518    0.2939 O   0  0  0  0  0  0  0  0  0  0  0  0
    1.4074   -2.0090   -0.7180 H   0  0  0  0  0  0  0  0  0  0  0  0
    2.1358   -1.6383    0.8498 H   0  0  0  0  0  0  0  0  0  0  0  0
    3.0813   -1.4716   -0.6293 H   0  0  0  0  0  0  0  0  0  0  0  0
    2.4147    0.7563    0.1175 H   0  0  0  0  0  0  0  0  0  0  0  0
    1.5724    0.3831   -1.3805 H   0  0  0  0  0  0  0  0  0  0  0  0
   -0.5608   -0.6558   -1.2750 H   0  0  0  0  0  0  0  0  0  0  0  0
   -1.6544   -1.1883    1.5273 H   0  0  0  0  0  0  0  0  0  0  0  0
   -2.0707   -2.0700    0.0581 H   0  0  0  0  0  0  0  0  0  0  0  0
   -0.4408   -2.1809    0.7213 H   0  0  0  0  0  0  0  0  0  0  0  0
   -1.8236    1.4749   -1.0797 H   0  0  0  0  0  0  0  0  0  0  0  0
   -2.4979    0.9264    0.4662 H   0  0  0  0  0  0  0  0  0  0  0  0
   -2.8674    0.0550   -1.0178 H   0  0  0  0  0  0  0  0  0  0  0  0
   -0.5219    2.1408    0.8422 H   0  0  0  0  0  0  0  0  0  0  0  0
  1  2  1  0  0  0  0
  2  3  1  0  0  0  0
  3  4  1  0  0  0  0
  3  5  1  0  0  0  0
  5  6  1  0  0  0  0
  5  7  1  0  0  0  0
  3  8  1  0  0  0  0
  1  9  1  0  0  0  0
  1 10  1  0  0  0  0
  1 11  1  0  0  0  0
  2 12  1  0  0  0  0
  2 13  1  0  0  0  0
  5 14  1  0  0  0  0
  6 15  1  0  0  0  0
  6 16  1  0  0  0  0
  6 17  1  0  0  0  0
  7 18  1  0  0  0  0
  7 19  1  0  0  0  0
  7 20  1  0  0  0  0
  8 21  1  0  0  0  0
M  END
