 xtb: 6.7.1 (edcfbbe)
          04112511193D

 14 13  0     0  0            999 V2000
   -1.3430   -0.4291   -0.3602 C   0  0  0  0  0  0  0  0  0  0  0  0
    0.0191   -0.0281    0.2440 C   0  0  0  0  0  0  0  0  0  0  0  0
    1.1590   -0.6876   -0.5438 C   0  0  0  0  0  0  0  0  0  0  0  0
    2.3938   -0.6592    0.1267 O   0  0  0  0  0  0  0  0  0  0  0  0
    0.1924    1.3769    0.1850 O   0  0  0  0  0  0  0  0  0  0  0  0
   -2.4110    0.2757    0.2278 O   0  0  0  0  0  0  0  0  0  0  0  0
   -1.5325   -1.4858   -0.1664 H   0  0  0  0  0  0  0  0  0  0  0  0
   -1.3193   -0.2615   -1.4432 H   0  0  0  0  0  0  0  0  0  0  0  0
    0.0557   -0.3653    1.2880 H   0  0  0  0  0  0  0  0  0  0  0  0
    1.3124   -0.1219   -1.4649 H   0  0  0  0  0  0  0  0  0  0  0  0
    0.8761   -1.7169   -0.7969 H   0  0  0  0  0  0  0  0  0  0  0  0
    2.3302   -1.1686    0.9474 H   0  0  0  0  0  0  0  0  0  0  0  0
   -0.1924    1.7871    0.9707 H   0  0  0  0  0  0  0  0  0  0  0  0
   -2.3449    1.2060   -0.0335 H   0  0  0  0  0  0  0  0  0  0  0  0
  1  2  1  0  0  0  0
  2  3  1  0  0  0  0
  3  4  1  0  0  0  0
  2  5  1  0  0  0  0
  1  6  1  0  0  0  0
  1  7  1  0  0  0  0
  1  8  1  0  0  0  0
  2  9  1  0  0  0  0
  3 10  1  0  0  0  0
  3 11  1  0  0  0  0
  4 12  1  0  0  0  0
  5 13  1  0  0  0  0
  6 14  1  0  0  0  0
M  END
