 xtb: 6.7.1 (edcfbbe)
          04112511193D

 14 13  0     0  0            999 V2000
   -1.3387   -0.3459   -0.4666 C   0  0  0  0  0  0  0  0  0  0  0  0
    0.0036   -0.0330    0.2065 C   0  0  0  0  0  0  0  0  0  0  0  0
    1.1643   -0.6858   -0.5530 C   0  0  0  0  0  0  0  0  0  0  0  0
    2.3885   -0.6285    0.1328 O   0  0  0  0  0  0  0  0  0  0  0  0
    0.2228    1.3592    0.2513 O   0  0  0  0  0  0  0  0  0  0  0  0
   -2.3502    0.2466    0.3211 O   0  0  0  0  0  0  0  0  0  0  0  0
   -1.4736   -1.4320   -0.5239 H   0  0  0  0  0  0  0  0  0  0  0  0
   -1.3358    0.0751   -1.4792 H   0  0  0  0  0  0  0  0  0  0  0  0
   -0.0314   -0.4295    1.2350 H   0  0  0  0  0  0  0  0  0  0  0  0
    1.3259   -0.1416   -1.4855 H   0  0  0  0  0  0  0  0  0  0  0  0
    0.9009   -1.7271   -0.7825 H   0  0  0  0  0  0  0  0  0  0  0  0
    2.2912   -1.0398    1.0035 H   0  0  0  0  0  0  0  0  0  0  0  0
   -0.5730    1.7737    0.6180 H   0  0  0  0  0  0  0  0  0  0  0  0
   -3.2122    0.0948   -0.0885 H   0  0  0  0  0  0  0  0  0  0  0  0
  1  2  1  0  0  0  0
  2  3  1  0  0  0  0
  3  4  1  0  0  0  0
  2  5  1  0  0  0  0
  1  6  1  0  0  0  0
  1  7  1  0  0  0  0
  1  8  1  0  0  0  0
  2  9  1  0  0  0  0
  3 10  1  0  0  0  0
  3 11  1  0  0  0  0
  4 12  1  0  0  0  0
  5 13  1  0  0  0  0
  6 14  1  0  0  0  0
M  END
