 xtb: 6.7.1 (edcfbbe)
          04112512193D

 17 16  0     0  0            999 V2000
   -2.7787    0.0743    0.6306 C   0  0  0  0  0  0  0  0  0  0  0  0
   -1.6863    0.7706   -0.1827 C   0  0  0  0  0  0  0  0  0  0  0  0
   -0.4947   -0.1396   -0.3374 C   0  0  0  0  0  0  0  0  0  0  0  0
   -0.5125   -1.2135   -0.9043 O   0  0  0  0  0  0  0  0  0  0  0  0
    0.5887    0.3677    0.2308 O   0  0  0  0  0  0  0  0  0  0  0  0
    1.8136   -0.3838    0.1674 C   0  0  0  0  0  0  0  0  0  0  0  0
    2.9737    0.5728    0.3672 C   0  0  0  0  0  0  0  0  0  0  0  0
   -2.4377   -0.1119    1.6458 H   0  0  0  0  0  0  0  0  0  0  0  0
   -3.6663    0.6982    0.6682 H   0  0  0  0  0  0  0  0  0  0  0  0
   -3.0332   -0.8773    0.1702 H   0  0  0  0  0  0  0  0  0  0  0  0
   -1.3636    1.6905    0.3019 H   0  0  0  0  0  0  0  0  0  0  0  0
   -2.0658    0.9935   -1.1809 H   0  0  0  0  0  0  0  0  0  0  0  0
    1.7829   -1.1453    0.9531 H   0  0  0  0  0  0  0  0  0  0  0  0
    1.8600   -0.8892   -0.8028 H   0  0  0  0  0  0  0  0  0  0  0  0
    3.9055    0.0179    0.3349 H   0  0  0  0  0  0  0  0  0  0  0  0
    2.9778    1.3253   -0.4162 H   0  0  0  0  0  0  0  0  0  0  0  0
    2.8838    1.0689    1.3289 H   0  0  0  0  0  0  0  0  0  0  0  0
  1  2  1  0  0  0  0
  2  3  1  0  0  0  0
  3  4  2  0  0  0  0
  3  5  1  0  0  0  0
  5  6  1  0  0  0  0
  6  7  1  0  0  0  0
  1  8  1  0  0  0  0
  1  9  1  0  0  0  0
  1 10  1  0  0  0  0
  2 11  1  0  0  0  0
  2 12  1  0  0  0  0
  6 13  1  0  0  0  0
  6 14  1  0  0  0  0
  7 15  1  0  0  0  0
  7 16  1  0  0  0  0
  7 17  1  0  0  0  0
M  END
