 xtb: 6.7.1 (edcfbbe)
          04112512203D

 18 17  0     0  0            999 V2000
   -1.8089    0.9196   -0.5954 C   0  0  0  0  0  0  0  0  0  0  0  0
   -1.0016    0.5789    0.6536 C   0  0  0  0  0  0  0  0  0  0  0  0
    0.0397   -0.5380    0.4768 C   0  0  0  0  0  0  0  0  0  0  0  0
    0.4951   -0.7106    1.4594 H   0  0  0  0  0  0  0  0  0  0  0  0
   -0.5992   -1.8417    0.0029 C   0  0  0  0  0  0  0  0  0  0  0  0
    1.1797   -0.1485   -0.4759 C   0  0  0  0  0  0  0  0  0  0  0  0
    2.0158    0.8751    0.0226 O   0  0  0  0  0  0  0  0  0  0  0  0
   -2.4025    0.0689   -0.9175 H   0  0  0  0  0  0  0  0  0  0  0  0
   -2.4868    1.7418   -0.3784 H   0  0  0  0  0  0  0  0  0  0  0  0
   -1.1651    1.2220   -1.4172 H   0  0  0  0  0  0  0  0  0  0  0  0
   -1.6926    0.2693    1.4410 H   0  0  0  0  0  0  0  0  0  0  0  0
   -0.4969    1.4797    1.0114 H   0  0  0  0  0  0  0  0  0  0  0  0
    0.1191   -2.6559    0.0579 H   0  0  0  0  0  0  0  0  0  0  0  0
   -0.9331   -1.7542   -1.0275 H   0  0  0  0  0  0  0  0  0  0  0  0
   -1.4524   -2.0923    0.6278 H   0  0  0  0  0  0  0  0  0  0  0  0
    0.7798    0.1320   -1.4585 H   0  0  0  0  0  0  0  0  0  0  0  0
    1.8407   -1.0080   -0.6145 H   0  0  0  0  0  0  0  0  0  0  0  0
    1.4972    1.6852    0.1192 H   0  0  0  0  0  0  0  0  0  0  0  0
  1  2  1  0  0  0  0
  2  3  1  0  0  0  0
  3  4  1  0  0  0  0
  3  5  1  0  0  0  0
  3  6  1  0  0  0  0
  6  7  1  0  0  0  0
  1  8  1  0  0  0  0
  1  9  1  0  0  0  0
  1 10  1  0  0  0  0
  2 11  1  0  0  0  0
  2 12  1  0  0  0  0
  5 13  1  0  0  0  0
  5 14  1  0  0  0  0
  5 15  1  0  0  0  0
  6 16  1  0  0  0  0
  6 17  1  0  0  0  0
  7 18  1  0  0  0  0
M  END
