 xtb: 6.7.1 (edcfbbe)
          04112511193D

 14 13  0     0  0            999 V2000
   -1.0764   -0.3484   -0.3900 C   0  0  0  0  0  0  0  0  0  0  0  0
    0.1320    0.3476    0.2522 C   0  0  0  0  0  0  0  0  0  0  0  0
    1.4535   -0.1295   -0.3875 C   0  0  0  0  0  0  0  0  0  0  0  0
    1.8464   -1.4088    0.0478 O   0  0  0  0  0  0  0  0  0  0  0  0
   -0.0397    1.7371    0.0749 O   0  0  0  0  0  0  0  0  0  0  0  0
   -2.2778   -0.1590    0.3135 O   0  0  0  0  0  0  0  0  0  0  0  0
   -0.8669   -1.4207   -0.4977 H   0  0  0  0  0  0  0  0  0  0  0  0
   -1.2422    0.0875   -1.3776 H   0  0  0  0  0  0  0  0  0  0  0  0
    0.1623    0.0986    1.3250 H   0  0  0  0  0  0  0  0  0  0  0  0
    2.2585    0.5414   -0.0763 H   0  0  0  0  0  0  0  0  0  0  0  0
    1.3686   -0.0839   -1.4793 H   0  0  0  0  0  0  0  0  0  0  0  0
    1.2768   -2.0836   -0.3450 H   0  0  0  0  0  0  0  0  0  0  0  0
    0.6355    2.2208    0.5704 H   0  0  0  0  0  0  0  0  0  0  0  0
   -2.1807   -0.4926    1.2170 H   0  0  0  0  0  0  0  0  0  0  0  0
  1  2  1  0  0  0  0
  2  3  1  0  0  0  0
  3  4  1  0  0  0  0
  2  5  1  0  0  0  0
  1  6  1  0  0  0  0
  1  7  1  0  0  0  0
  1  8  1  0  0  0  0
  2  9  1  0  0  0  0
  3 10  1  0  0  0  0
  3 11  1  0  0  0  0
  4 12  1  0  0  0  0
  5 13  1  0  0  0  0
  6 14  1  0  0  0  0
M  END
