 xtb: 6.7.1 (edcfbbe)
          04112512193D

 17 16  0     0  0            999 V2000
   -2.4328    0.1027    1.0039 C   0  0  0  0  0  0  0  0  0  0  0  0
   -1.7828    0.5583   -0.3051 C   0  0  0  0  0  0  0  0  0  0  0  0
   -0.4415   -0.1117   -0.4595 C   0  0  0  0  0  0  0  0  0  0  0  0
   -0.2825   -1.2910   -0.6979 O   0  0  0  0  0  0  0  0  0  0  0  0
    0.5554    0.7464   -0.2884 O   0  0  0  0  0  0  0  0  0  0  0  0
    1.9056    0.2559   -0.3491 C   0  0  0  0  0  0  0  0  0  0  0  0
    2.3798   -0.2022    1.0215 C   0  0  0  0  0  0  0  0  0  0  0  0
   -2.5186   -0.9812    1.0186 H   0  0  0  0  0  0  0  0  0  0  0  0
   -1.8340    0.4165    1.8551 H   0  0  0  0  0  0  0  0  0  0  0  0
   -3.4240    0.5366    1.0937 H   0  0  0  0  0  0  0  0  0  0  0  0
   -1.6398    1.6375   -0.3087 H   0  0  0  0  0  0  0  0  0  0  0  0
   -2.4105    0.2609   -1.1453 H   0  0  0  0  0  0  0  0  0  0  0  0
    1.9444   -0.5687   -1.0673 H   0  0  0  0  0  0  0  0  0  0  0  0
    2.4916    1.1017   -0.7100 H   0  0  0  0  0  0  0  0  0  0  0  0
    1.7826   -1.0463    1.3593 H   0  0  0  0  0  0  0  0  0  0  0  0
    3.4189   -0.5084    0.9589 H   0  0  0  0  0  0  0  0  0  0  0  0
    2.2866    0.6082    1.7395 H   0  0  0  0  0  0  0  0  0  0  0  0
  1  2  1  0  0  0  0
  2  3  1  0  0  0  0
  3  4  2  0  0  0  0
  3  5  1  0  0  0  0
  5  6  1  0  0  0  0
  6  7  1  0  0  0  0
  1  8  1  0  0  0  0
  1  9  1  0  0  0  0
  1 10  1  0  0  0  0
  2 11  1  0  0  0  0
  2 12  1  0  0  0  0
  6 13  1  0  0  0  0
  6 14  1  0  0  0  0
  7 15  1  0  0  0  0
  7 16  1  0  0  0  0
  7 17  1  0  0  0  0
M  END
