 xtb: 6.7.1 (edcfbbe)
          04112511203D

 21 20  0     0  0            999 V2000
   -3.0061    0.3608   -0.0934 C   0  0  0  0  0  0  0  0  0  0  0  0
   -1.6369   -0.0283    0.4507 C   0  0  0  0  0  0  0  0  0  0  0  0
   -0.5482    0.1655   -0.6044 C   0  0  0  0  0  0  0  0  0  0  0  0
    0.9029   -0.0645   -0.0854 C   0  0  0  0  0  0  0  0  0  0  0  0
    1.7264    1.2164   -0.2475 C   0  0  0  0  0  0  0  0  0  0  0  0
    1.5622   -1.2088   -0.8642 C   0  0  0  0  0  0  0  0  0  0  0  0
    0.9346   -0.3572    1.3088 O   0  0  0  0  0  0  0  0  0  0  0  0
   -3.7719    0.2118    0.6638 H   0  0  0  0  0  0  0  0  0  0  0  0
   -3.2576   -0.2445   -0.9617 H   0  0  0  0  0  0  0  0  0  0  0  0
   -3.0162    1.4068   -0.3912 H   0  0  0  0  0  0  0  0  0  0  0  0
   -1.4025    0.5808    1.3257 H   0  0  0  0  0  0  0  0  0  0  0  0
   -1.6662   -1.0728    0.7681 H   0  0  0  0  0  0  0  0  0  0  0  0
   -0.7430   -0.5112   -1.4381 H   0  0  0  0  0  0  0  0  0  0  0  0
   -0.6252    1.1843   -0.9871 H   0  0  0  0  0  0  0  0  0  0  0  0
    1.7619    1.5151   -1.2904 H   0  0  0  0  0  0  0  0  0  0  0  0
    2.7379    1.0504    0.1140 H   0  0  0  0  0  0  0  0  0  0  0  0
    1.2796    2.0118    0.3431 H   0  0  0  0  0  0  0  0  0  0  0  0
    1.6374   -0.9513   -1.9167 H   0  0  0  0  0  0  0  0  0  0  0  0
    0.9763   -2.1211   -0.7686 H   0  0  0  0  0  0  0  0  0  0  0  0
    2.5619   -1.3928   -0.4767 H   0  0  0  0  0  0  0  0  0  0  0  0
    0.6063   -1.2541    1.4518 H   0  0  0  0  0  0  0  0  0  0  0  0
  1  2  1  0  0  0  0
  2  3  1  0  0  0  0
  3  4  1  0  0  0  0
  4  5  1  0  0  0  0
  4  6  1  0  0  0  0
  4  7  1  0  0  0  0
  1  8  1  0  0  0  0
  1  9  1  0  0  0  0
  1 10  1  0  0  0  0
  2 11  1  0  0  0  0
  2 12  1  0  0  0  0
  3 13  1  0  0  0  0
  3 14  1  0  0  0  0
  5 15  1  0  0  0  0
  5 16  1  0  0  0  0
  5 17  1  0  0  0  0
  6 18  1  0  0  0  0
  6 19  1  0  0  0  0
  6 20  1  0  0  0  0
  7 21  1  0  0  0  0
M  END
