 xtb: 6.7.1 (edcfbbe)
          04112511193D

 14 13  0     0  0            999 V2000
   -1.1099   -0.0552    0.7156 C   0  0  0  0  0  0  0  0  0  0  0  0
    0.2341    0.5992    0.3343 C   0  0  0  0  0  0  0  0  0  0  0  0
    1.1321   -0.3696   -0.4573 C   0  0  0  0  0  0  0  0  0  0  0  0
    1.6651   -1.4034    0.3347 O   0  0  0  0  0  0  0  0  0  0  0  0
    0.0343    1.7971   -0.3870 O   0  0  0  0  0  0  0  0  0  0  0  0
   -1.8365   -0.5128   -0.4046 O   0  0  0  0  0  0  0  0  0  0  0  0
   -1.6976    0.6609    1.2993 H   0  0  0  0  0  0  0  0  0  0  0  0
   -0.9178   -0.9317    1.3371 H   0  0  0  0  0  0  0  0  0  0  0  0
    0.7464    0.8905    1.2568 H   0  0  0  0  0  0  0  0  0  0  0  0
    1.9911    0.1870   -0.8409 H   0  0  0  0  0  0  0  0  0  0  0  0
    0.5624   -0.7796   -1.3016 H   0  0  0  0  0  0  0  0  0  0  0  0
    0.9650   -2.0327    0.5543 H   0  0  0  0  0  0  0  0  0  0  0  0
   -0.2531    1.5796   -1.2857 H   0  0  0  0  0  0  0  0  0  0  0  0
   -2.2746    0.2371   -0.8288 H   0  0  0  0  0  0  0  0  0  0  0  0
  1  2  1  0  0  0  0
  2  3  1  0  0  0  0
  3  4  1  0  0  0  0
  2  5  1  0  0  0  0
  1  6  1  0  0  0  0
  1  7  1  0  0  0  0
  1  8  1  0  0  0  0
  2  9  1  0  0  0  0
  3 10  1  0  0  0  0
  3 11  1  0  0  0  0
  4 12  1  0  0  0  0
  5 13  1  0  0  0  0
  6 14  1  0  0  0  0
M  END
