 xtb: 6.7.1 (edcfbbe)
          04112511043D

 22 22  0     0  0            999 V2000
   -2.6017   -0.3010    1.5335 C   0  0  0  0  0  0  0  0  0  0  0  0
   -2.1057   -0.3239    0.0882 C   0  0  0  0  0  0  0  0  0  0  0  0
   -3.2927   -0.1851   -0.8641 C   0  0  0  0  0  0  0  0  0  0  0  0
   -1.0843    0.8003   -0.1732 C   0  0  0  0  0  0  0  0  0  0  0  0
    0.3482    0.3692   -0.1275 C   0  0  0  0  0  0  0  0  0  0  0  0
    0.8590   -0.5427    0.7999 C   0  0  0  0  0  0  0  0  0  0  0  0
    2.1330   -0.8989    0.8156 N   0  0  0  0  0  0  0  0  0  0  0  0
    2.9281   -0.3497   -0.0944 C   0  0  0  0  0  0  0  0  0  0  0  0
    2.4354    0.5569   -1.0209 C   0  0  0  0  0  0  0  0  0  0  0  0
    1.1589    0.9092   -1.0373 N   0  0  0  0  0  0  0  0  0  0  0  0
   -1.7763   -0.3492    2.2389 H   0  0  0  0  0  0  0  0  0  0  0  0
   -3.2605   -1.1456    1.7207 H   0  0  0  0  0  0  0  0  0  0  0  0
   -3.1584    0.6144    1.7224 H   0  0  0  0  0  0  0  0  0  0  0  0
   -1.6240   -1.2888   -0.1058 H   0  0  0  0  0  0  0  0  0  0  0  0
   -4.0219   -0.9692   -0.6751 H   0  0  0  0  0  0  0  0  0  0  0  0
   -3.7791    0.7774   -0.7238 H   0  0  0  0  0  0  0  0  0  0  0  0
   -2.9674   -0.2625   -1.8987 H   0  0  0  0  0  0  0  0  0  0  0  0
   -1.2247    1.5951    0.5639 H   0  0  0  0  0  0  0  0  0  0  0  0
   -1.2479    1.2429   -1.1565 H   0  0  0  0  0  0  0  0  0  0  0  0
    0.2371   -1.0059    1.5514 H   0  0  0  0  0  0  0  0  0  0  0  0
    3.9654   -0.6489   -0.0709 H   0  0  0  0  0  0  0  0  0  0  0  0
    3.0661    1.0124   -1.7712 H   0  0  0  0  0  0  0  0  0  0  0  0
  1  2  1  0  0  0  0
  2  3  1  0  0  0  0
  2  4  1  0  0  0  0
  4  5  1  0  0  0  0
  5  6  4  0  0  0  0
  6  7  4  0  0  0  0
  7  8  4  0  0  0  0
  8  9  4  0  0  0  0
  5 10  4  0  0  0  0
  9 10  4  0  0  0  0
  1 11  1  0  0  0  0
  1 12  1  0  0  0  0
  1 13  1  0  0  0  0
  2 14  1  0  0  0  0
  3 15  1  0  0  0  0
  3 16  1  0  0  0  0
  3 17  1  0  0  0  0
  4 18  1  0  0  0  0
  4 19  1  0  0  0  0
  6 20  1  0  0  0  0
  8 21  1  0  0  0  0
  9 22  1  0  0  0  0
M  END
