 xtb: 6.7.1 (edcfbbe)
          04072508503D

 19 19  0     0  0            999 V2000
   -2.5347   -0.1140    0.4890 C   0  0  0  0  0  0  0  0  0  0  0  0
   -1.8013   -1.2504    0.1946 C   0  0  0  0  0  0  0  0  0  0  0  0
   -0.5209   -1.1364   -0.3203 C   0  0  0  0  0  0  0  0  0  0  0  0
    0.0417    0.1131   -0.5507 C   0  0  0  0  0  0  0  0  0  0  0  0
   -0.7033    1.2482   -0.2500 C   0  0  0  0  0  0  0  0  0  0  0  0
   -1.9823    1.1365    0.2647 C   0  0  0  0  0  0  0  0  0  0  0  0
    1.4462    0.2433   -1.0677 C   0  0  0  0  0  0  0  0  0  0  0  0
    2.4365    0.4862    0.0833 C   0  0  0  0  0  0  0  0  0  0  0  0
    2.5902   -0.6338    0.9267 O   0  0  0  0  0  0  0  0  0  0  0  0
   -3.5338   -0.2014    0.8886 H   0  0  0  0  0  0  0  0  0  0  0  0
   -2.2266   -2.2282    0.3650 H   0  0  0  0  0  0  0  0  0  0  0  0
    0.0459   -2.0266   -0.5531 H   0  0  0  0  0  0  0  0  0  0  0  0
   -0.2769    2.2253   -0.4263 H   0  0  0  0  0  0  0  0  0  0  0  0
   -2.5510    2.0264    0.4898 H   0  0  0  0  0  0  0  0  0  0  0  0
    1.7426   -0.6663   -1.5918 H   0  0  0  0  0  0  0  0  0  0  0  0
    1.5166    1.0864   -1.7554 H   0  0  0  0  0  0  0  0  0  0  0  0
    3.4331    0.6803   -0.3195 H   0  0  0  0  0  0  0  0  0  0  0  0
    2.1169    1.3598    0.6677 H   0  0  0  0  0  0  0  0  0  0  0  0
    1.7315   -0.8525    1.3149 H   0  0  0  0  0  0  0  0  0  0  0  0
  1  2  4  0  0  0  0
  2  3  4  0  0  0  0
  3  4  4  0  0  0  0
  4  5  4  0  0  0  0
  1  6  4  0  0  0  0
  5  6  4  0  0  0  0
  4  7  1  0  0  0  0
  7  8  1  0  0  0  0
  8  9  1  0  0  0  0
  1 10  1  0  0  0  0
  2 11  1  0  0  0  0
  3 12  1  0  0  0  0
  5 13  1  0  0  0  0
  6 14  1  0  0  0  0
  7 15  1  0  0  0  0
  7 16  1  0  0  0  0
  8 17  1  0  0  0  0
  8 18  1  0  0  0  0
  9 19  1  0  0  0  0
M  END
