 xtb: 6.7.1 (edcfbbe)
          04112512243D

 23 22  0     0  0            999 V2000
    2.1982    1.0516    0.1729 C   0  0  0  0  0  0  0  0  0  0  0  0
    1.3861    0.3697   -0.9257 C   0  0  0  0  0  0  0  0  0  0  0  0
    0.2574   -0.5763   -0.4631 C   0  0  0  0  0  0  0  0  0  0  0  0
    0.1246   -1.3067   -1.2724 H   0  0  0  0  0  0  0  0  0  0  0  0
    0.6524   -1.3642    0.7845 C   0  0  0  0  0  0  0  0  0  0  0  0
   -1.1086    0.1355   -0.3404 C   0  0  0  0  0  0  0  0  0  0  0  0
   -2.2341   -0.8730   -0.0996 C   0  0  0  0  0  0  0  0  0  0  0  0
   -1.1696    1.2276    0.7251 C   0  0  0  0  0  0  0  0  0  0  0  0
    2.9016    1.7472   -0.2807 H   0  0  0  0  0  0  0  0  0  0  0  0
    1.5676    1.6071    0.8590 H   0  0  0  0  0  0  0  0  0  0  0  0
    2.7684    0.3236    0.7431 H   0  0  0  0  0  0  0  0  0  0  0  0
    2.0844   -0.2088   -1.5362 H   0  0  0  0  0  0  0  0  0  0  0  0
    0.9524    1.1340   -1.5749 H   0  0  0  0  0  0  0  0  0  0  0  0
   -0.0779   -2.1415    0.9914 H   0  0  0  0  0  0  0  0  0  0  0  0
    1.6152   -1.8445    0.6246 H   0  0  0  0  0  0  0  0  0  0  0  0
    0.7296   -0.7209    1.6554 H   0  0  0  0  0  0  0  0  0  0  0  0
   -1.2966    0.6098   -1.3124 H   0  0  0  0  0  0  0  0  0  0  0  0
   -3.2007   -0.3895   -0.2226 H   0  0  0  0  0  0  0  0  0  0  0  0
   -2.1854   -1.2742    0.9093 H   0  0  0  0  0  0  0  0  0  0  0  0
   -2.1732   -1.6977   -0.8063 H   0  0  0  0  0  0  0  0  0  0  0  0
   -2.1809    1.6261    0.7790 H   0  0  0  0  0  0  0  0  0  0  0  0
   -0.5011    2.0485    0.4837 H   0  0  0  0  0  0  0  0  0  0  0  0
   -0.9113    0.8340    1.7044 H   0  0  0  0  0  0  0  0  0  0  0  0
  1  2  1  0  0  0  0
  2  3  1  0  0  0  0
  3  4  1  0  0  0  0
  3  5  1  0  0  0  0
  3  6  1  0  0  0  0
  6  7  1  0  0  0  0
  6  8  1  0  0  0  0
  1  9  1  0  0  0  0
  1 10  1  0  0  0  0
  1 11  1  0  0  0  0
  2 12  1  0  0  0  0
  2 13  1  0  0  0  0
  5 14  1  0  0  0  0
  5 15  1  0  0  0  0
  5 16  1  0  0  0  0
  6 17  1  0  0  0  0
  7 18  1  0  0  0  0
  7 19  1  0  0  0  0
  7 20  1  0  0  0  0
  8 21  1  0  0  0  0
  8 22  1  0  0  0  0
  8 23  1  0  0  0  0
M  END
