 xtb: 6.7.1 (edcfbbe)
          04112512083D

 17 16  0     0  0            999 V2000
   -2.6857    0.4085    0.9432 C   0  0  0  0  0  0  0  0  0  0  0  0
   -2.1531    0.3989   -0.4849 C   0  0  0  0  0  0  0  0  0  0  0  0
   -0.8716   -0.4133   -0.6049 C   0  0  0  0  0  0  0  0  0  0  0  0
    0.1686    0.2663    0.1139 O   0  0  0  0  0  0  0  0  0  0  0  0
    1.4120   -0.1680   -0.0356 C   0  0  0  0  0  0  0  0  0  0  0  0
    1.7048   -1.1093   -0.7464 O   0  0  0  0  0  0  0  0  0  0  0  0
    2.3861    0.6349    0.7728 C   0  0  0  0  0  0  0  0  0  0  0  0
   -2.9303   -0.6009    1.2648 H   0  0  0  0  0  0  0  0  0  0  0  0
   -1.9380    0.8154    1.6186 H   0  0  0  0  0  0  0  0  0  0  0  0
   -3.5819    1.0192    1.0064 H   0  0  0  0  0  0  0  0  0  0  0  0
   -1.9476    1.4196   -0.8094 H   0  0  0  0  0  0  0  0  0  0  0  0
   -2.8919   -0.0358   -1.1581 H   0  0  0  0  0  0  0  0  0  0  0  0
   -0.9910   -1.4143   -0.1771 H   0  0  0  0  0  0  0  0  0  0  0  0
   -0.5564   -0.5227   -1.6480 H   0  0  0  0  0  0  0  0  0  0  0  0
    1.8979    1.5166    1.1730 H   0  0  0  0  0  0  0  0  0  0  0  0
    3.2318    0.9078    0.1478 H   0  0  0  0  0  0  0  0  0  0  0  0
    2.7575    0.0151    1.5858 H   0  0  0  0  0  0  0  0  0  0  0  0
  1  2  1  0  0  0  0
  2  3  1  0  0  0  0
  3  4  1  0  0  0  0
  4  5  1  0  0  0  0
  5  6  2  0  0  0  0
  5  7  1  0  0  0  0
  1  8  1  0  0  0  0
  1  9  1  0  0  0  0
  1 10  1  0  0  0  0
  2 11  1  0  0  0  0
  2 12  1  0  0  0  0
  3 13  1  0  0  0  0
  3 14  1  0  0  0  0
  7 15  1  0  0  0  0
  7 16  1  0  0  0  0
  7 17  1  0  0  0  0
M  END
