 xtb: 6.7.1 (edcfbbe)
          04112511583D

 18 17  0     0  0            999 V2000
   -2.0347    0.7336    0.7909 C   0  0  0  0  0  0  0  0  0  0  0  0
   -1.0849    0.4895   -0.3760 C   0  0  0  0  0  0  0  0  0  0  0  0
    0.0330   -0.5175   -0.0334 C   0  0  0  0  0  0  0  0  0  0  0  0
    1.4354    0.0479   -0.2991 C   0  0  0  0  0  0  0  0  0  0  0  0
    1.8294    1.1263    0.7024 C   0  0  0  0  0  0  0  0  0  0  0  0
   -0.1483   -1.7496   -0.7154 O   0  0  0  0  0  0  0  0  0  0  0  0
   -2.4969   -0.2000    1.1032 H   0  0  0  0  0  0  0  0  0  0  0  0
   -1.4977    1.1534    1.6383 H   0  0  0  0  0  0  0  0  0  0  0  0
   -2.8199    1.4279    0.5013 H   0  0  0  0  0  0  0  0  0  0  0  0
   -1.6561    0.0945   -1.2188 H   0  0  0  0  0  0  0  0  0  0  0  0
   -0.6458    1.4376   -0.6893 H   0  0  0  0  0  0  0  0  0  0  0  0
   -0.0370   -0.7953    1.0244 H   0  0  0  0  0  0  0  0  0  0  0  0
    2.1468   -0.7790   -0.2370 H   0  0  0  0  0  0  0  0  0  0  0  0
    1.4744    0.4516   -1.3141 H   0  0  0  0  0  0  0  0  0  0  0  0
    2.8292    1.4923    0.4837 H   0  0  0  0  0  0  0  0  0  0  0  0
    1.1406    1.9661    0.6636 H   0  0  0  0  0  0  0  0  0  0  0  0
    1.8226    0.7242    1.7128 H   0  0  0  0  0  0  0  0  0  0  0  0
   -0.0299   -1.6022   -1.6640 H   0  0  0  0  0  0  0  0  0  0  0  0
  1  2  1  0  0  0  0
  2  3  1  0  0  0  0
  3  4  1  0  0  0  0
  4  5  1  0  0  0  0
  3  6  1  0  0  0  0
  1  7  1  0  0  0  0
  1  8  1  0  0  0  0
  1  9  1  0  0  0  0
  2 10  1  0  0  0  0
  2 11  1  0  0  0  0
  3 12  1  0  0  0  0
  4 13  1  0  0  0  0
  4 14  1  0  0  0  0
  5 15  1  0  0  0  0
  5 16  1  0  0  0  0
  5 17  1  0  0  0  0
  6 18  1  0  0  0  0
M  END
