 xtb: 6.7.1 (edcfbbe)
          04112511493D

 17 16  0     0  0            999 V2000
   -3.1038    0.7133    0.0100 C   0  0  0  0  0  0  0  0  0  0  0  0
   -1.6676    0.4911   -0.4464 C   0  0  0  0  0  0  0  0  0  0  0  0
   -0.8660   -0.2881    0.6076 C   0  0  0  0  0  0  0  0  0  0  0  0
    0.5350   -0.5033    0.1060 C   0  0  0  0  0  0  0  0  0  0  0  0
    0.9206   -1.4862   -0.4924 O   0  0  0  0  0  0  0  0  0  0  0  0
    1.3141    0.5413    0.3635 O   0  0  0  0  0  0  0  0  0  0  0  0
    2.6635    0.4947   -0.1072 C   0  0  0  0  0  0  0  0  0  0  0  0
   -3.6550    1.2657   -0.7460 H   0  0  0  0  0  0  0  0  0  0  0  0
   -3.6028   -0.2381    0.1747 H   0  0  0  0  0  0  0  0  0  0  0  0
   -3.1249    1.2800    0.9371 H   0  0  0  0  0  0  0  0  0  0  0  0
   -1.1823    1.4530   -0.6213 H   0  0  0  0  0  0  0  0  0  0  0  0
   -1.6594   -0.0686   -1.3841 H   0  0  0  0  0  0  0  0  0  0  0  0
   -1.3291   -1.2591    0.7801 H   0  0  0  0  0  0  0  0  0  0  0  0
   -0.8292    0.2831    1.5343 H   0  0  0  0  0  0  0  0  0  0  0  0
    2.6772    0.4951   -1.1976 H   0  0  0  0  0  0  0  0  0  0  0  0
    3.1527   -0.4110    0.2532 H   0  0  0  0  0  0  0  0  0  0  0  0
    3.1432    1.3839    0.2891 H   0  0  0  0  0  0  0  0  0  0  0  0
  1  2  1  0  0  0  0
  2  3  1  0  0  0  0
  3  4  1  0  0  0  0
  4  5  2  0  0  0  0
  4  6  1  0  0  0  0
  6  7  1  0  0  0  0
  1  8  1  0  0  0  0
  1  9  1  0  0  0  0
  1 10  1  0  0  0  0
  2 11  1  0  0  0  0
  2 12  1  0  0  0  0
  3 13  1  0  0  0  0
  3 14  1  0  0  0  0
  7 15  1  0  0  0  0
  7 16  1  0  0  0  0
  7 17  1  0  0  0  0
M  END
