 xtb: 6.7.1 (edcfbbe)
          04112511193D

 14 13  0     0  0            999 V2000
   -1.4463    0.1435    0.5985 C   0  0  0  0  0  0  0  0  0  0  0  0
    0.0745    0.3435    0.4862 C   0  0  0  0  0  0  0  0  0  0  0  0
    0.7916   -0.8929   -0.0674 C   0  0  0  0  0  0  0  0  0  0  0  0
    2.1814   -0.6549    0.0329 O   0  0  0  0  0  0  0  0  0  0  0  0
    0.3196    1.4697   -0.3276 O   0  0  0  0  0  0  0  0  0  0  0  0
   -2.0657   -0.3328   -0.5709 O   0  0  0  0  0  0  0  0  0  0  0  0
   -1.8921    1.1220    0.7886 H   0  0  0  0  0  0  0  0  0  0  0  0
   -1.6549   -0.5171    1.4478 H   0  0  0  0  0  0  0  0  0  0  0  0
    0.4608    0.5364    1.5003 H   0  0  0  0  0  0  0  0  0  0  0  0
    0.5023   -1.0314   -1.1162 H   0  0  0  0  0  0  0  0  0  0  0  0
    0.5064   -1.7728    0.5224 H   0  0  0  0  0  0  0  0  0  0  0  0
    2.6658   -1.4026   -0.3415 H   0  0  0  0  0  0  0  0  0  0  0  0
    1.2738    1.5194   -0.4881 H   0  0  0  0  0  0  0  0  0  0  0  0
   -1.8581   -1.2686   -0.6951 H   0  0  0  0  0  0  0  0  0  0  0  0
  1  2  1  0  0  0  0
  2  3  1  0  0  0  0
  3  4  1  0  0  0  0
  2  5  1  0  0  0  0
  1  6  1  0  0  0  0
  1  7  1  0  0  0  0
  1  8  1  0  0  0  0
  2  9  1  0  0  0  0
  3 10  1  0  0  0  0
  3 11  1  0  0  0  0
  4 12  1  0  0  0  0
  5 13  1  0  0  0  0
  6 14  1  0  0  0  0
M  END
