 xtb: 6.7.1 (edcfbbe)
          04112511523D

 18 17  0     0  0            999 V2000
    0.9757   -1.2299    0.6801 C   0  0  0  0  0  0  0  0  0  0  0  0
    1.0765    0.2699    0.4171 C   0  0  0  0  0  0  0  0  0  0  0  0
    1.8265    0.5388   -0.8871 C   0  0  0  0  0  0  0  0  0  0  0  0
   -0.2992    0.9526    0.4398 C   0  0  0  0  0  0  0  0  0  0  0  0
   -1.3357    0.4035   -0.5412 C   0  0  0  0  0  0  0  0  0  0  0  0
   -1.9408   -0.7566    0.0006 O   0  0  0  0  0  0  0  0  0  0  0  0
    1.9684   -1.6671    0.7615 H   0  0  0  0  0  0  0  0  0  0  0  0
    0.4441   -1.7265   -0.1266 H   0  0  0  0  0  0  0  0  0  0  0  0
    0.4337   -1.4185    1.6034 H   0  0  0  0  0  0  0  0  0  0  0  0
    1.6561    0.7194    1.2326 H   0  0  0  0  0  0  0  0  0  0  0  0
    1.8857    1.6070   -1.0824 H   0  0  0  0  0  0  0  0  0  0  0  0
    1.3326    0.0598   -1.7286 H   0  0  0  0  0  0  0  0  0  0  0  0
    2.8376    0.1442   -0.8226 H   0  0  0  0  0  0  0  0  0  0  0  0
   -0.1617    2.0147    0.2293 H   0  0  0  0  0  0  0  0  0  0  0  0
   -0.7251    0.8570    1.4407 H   0  0  0  0  0  0  0  0  0  0  0  0
   -2.1025    1.1733   -0.7064 H   0  0  0  0  0  0  0  0  0  0  0  0
   -0.8687    0.1734   -1.5066 H   0  0  0  0  0  0  0  0  0  0  0  0
   -2.6312   -1.0679   -0.5987 H   0  0  0  0  0  0  0  0  0  0  0  0
  1  2  1  0  0  0  0
  2  3  1  0  0  0  0
  2  4  1  0  0  0  0
  4  5  1  0  0  0  0
  5  6  1  0  0  0  0
  1  7  1  0  0  0  0
  1  8  1  0  0  0  0
  1  9  1  0  0  0  0
  2 10  1  0  0  0  0
  3 11  1  0  0  0  0
  3 12  1  0  0  0  0
  3 13  1  0  0  0  0
  4 14  1  0  0  0  0
  4 15  1  0  0  0  0
  5 16  1  0  0  0  0
  5 17  1  0  0  0  0
  6 18  1  0  0  0  0
M  END
