 xtb: 6.7.1 (edcfbbe)
          04112511103D

 18 17  0     0  0            999 V2000
    1.9001   -0.3462    0.8621 C   0  0  0  0  0  0  0  0  0  0  0  0
    1.5093    0.2816   -0.4702 C   0  0  0  0  0  0  0  0  0  0  0  0
    0.2406   -0.2946   -1.1047 C   0  0  0  0  0  0  0  0  0  0  0  0
   -1.0747    0.0024   -0.3570 C   0  0  0  0  0  0  0  0  0  0  0  0
   -1.8847    0.0024   -1.1085 H   0  0  0  0  0  0  0  0  0  0  0  0
   -1.4224   -1.0593    0.6890 C   0  0  0  0  0  0  0  0  0  0  0  0
   -0.9898    1.2977    0.2129 O   0  0  0  0  0  0  0  0  0  0  0  0
    1.2173   -0.0363    1.6478 H   0  0  0  0  0  0  0  0  0  0  0  0
    2.9002   -0.0237    1.1434 H   0  0  0  0  0  0  0  0  0  0  0  0
    1.8957   -1.4318    0.7933 H   0  0  0  0  0  0  0  0  0  0  0  0
    1.3736    1.3556   -0.3358 H   0  0  0  0  0  0  0  0  0  0  0  0
    2.3241    0.1326   -1.1829 H   0  0  0  0  0  0  0  0  0  0  0  0
    0.1593    0.1342   -2.1056 H   0  0  0  0  0  0  0  0  0  0  0  0
    0.3393   -1.3757   -1.2107 H   0  0  0  0  0  0  0  0  0  0  0  0
   -2.3891   -0.8403    1.1388 H   0  0  0  0  0  0  0  0  0  0  0  0
   -1.4794   -2.0344    0.2142 H   0  0  0  0  0  0  0  0  0  0  0  0
   -0.6737   -1.0924    1.4733 H   0  0  0  0  0  0  0  0  0  0  0  0
   -1.8089    1.4855    0.6892 H   0  0  0  0  0  0  0  0  0  0  0  0
  1  2  1  0  0  0  0
  2  3  1  0  0  0  0
  3  4  1  0  0  0  0
  4  5  1  0  0  0  0
  4  6  1  0  0  0  0
  4  7  1  0  0  0  0
  1  8  1  0  0  0  0
  1  9  1  0  0  0  0
  1 10  1  0  0  0  0
  2 11  1  0  0  0  0
  2 12  1  0  0  0  0
  3 13  1  0  0  0  0
  3 14  1  0  0  0  0
  6 15  1  0  0  0  0
  6 16  1  0  0  0  0
  6 17  1  0  0  0  0
  7 18  1  0  0  0  0
M  END
