 xtb: 6.7.1 (edcfbbe)
          04112512243D

 23 22  0     0  0            999 V2000
    2.5406    0.9068   -0.5846 C   0  0  0  0  0  0  0  0  0  0  0  0
    1.4214    0.6412    0.4168 C   0  0  0  0  0  0  0  0  0  0  0  0
    0.3690   -0.3490   -0.1270 C   0  0  0  0  0  0  0  0  0  0  0  0
    0.6880   -0.6583   -1.1290 H   0  0  0  0  0  0  0  0  0  0  0  0
    0.3173   -1.6062    0.7407 C   0  0  0  0  0  0  0  0  0  0  0  0
   -1.0079    0.3266   -0.2974 C   0  0  0  0  0  0  0  0  0  0  0  0
   -1.9296   -0.4913   -1.2020 C   0  0  0  0  0  0  0  0  0  0  0  0
   -1.7044    0.6072    1.0332 C   0  0  0  0  0  0  0  0  0  0  0  0
    2.1390    1.3346   -1.5007 H   0  0  0  0  0  0  0  0  0  0  0  0
    3.2658    1.6039   -0.1706 H   0  0  0  0  0  0  0  0  0  0  0  0
    3.0574   -0.0172   -0.8341 H   0  0  0  0  0  0  0  0  0  0  0  0
    0.9470    1.5916    0.6674 H   0  0  0  0  0  0  0  0  0  0  0  0
    1.8578    0.2465    1.3360 H   0  0  0  0  0  0  0  0  0  0  0  0
    1.2902   -2.0931    0.7373 H   0  0  0  0  0  0  0  0  0  0  0  0
    0.0635   -1.3604    1.7685 H   0  0  0  0  0  0  0  0  0  0  0  0
   -0.4139   -2.3146    0.3602 H   0  0  0  0  0  0  0  0  0  0  0  0
   -0.8262    1.2865   -0.7968 H   0  0  0  0  0  0  0  0  0  0  0  0
   -2.8553    0.0510   -1.3812 H   0  0  0  0  0  0  0  0  0  0  0  0
   -2.1813   -1.4440   -0.7427 H   0  0  0  0  0  0  0  0  0  0  0  0
   -1.4551   -0.6853   -2.1615 H   0  0  0  0  0  0  0  0  0  0  0  0
   -1.0396    1.1208    1.7231 H   0  0  0  0  0  0  0  0  0  0  0  0
   -2.0365   -0.3185    1.4955 H   0  0  0  0  0  0  0  0  0  0  0  0
   -2.5776    1.2351    0.8698 H   0  0  0  0  0  0  0  0  0  0  0  0
  1  2  1  0  0  0  0
  2  3  1  0  0  0  0
  3  4  1  0  0  0  0
  3  5  1  0  0  0  0
  3  6  1  0  0  0  0
  6  7  1  0  0  0  0
  6  8  1  0  0  0  0
  1  9  1  0  0  0  0
  1 10  1  0  0  0  0
  1 11  1  0  0  0  0
  2 12  1  0  0  0  0
  2 13  1  0  0  0  0
  5 14  1  0  0  0  0
  5 15  1  0  0  0  0
  5 16  1  0  0  0  0
  6 17  1  0  0  0  0
  7 18  1  0  0  0  0
  7 19  1  0  0  0  0
  7 20  1  0  0  0  0
  8 21  1  0  0  0  0
  8 22  1  0  0  0  0
  8 23  1  0  0  0  0
M  END
