 xtb: 6.7.1 (edcfbbe)
          04112511193D

 14 13  0     0  0            999 V2000
   -1.1727    0.1673   -0.4944 C   0  0  0  0  0  0  0  0  0  0  0  0
   -0.0332    0.5102    0.4867 C   0  0  0  0  0  0  0  0  0  0  0  0
    0.9313   -0.6760    0.6108 C   0  0  0  0  0  0  0  0  0  0  0  0
    1.6145   -0.8014   -0.6207 O   0  0  0  0  0  0  0  0  0  0  0  0
    0.6438    1.6770    0.0848 O   0  0  0  0  0  0  0  0  0  0  0  0
   -2.0489   -0.8094    0.0145 O   0  0  0  0  0  0  0  0  0  0  0  0
   -0.7441   -0.2551   -1.4065 H   0  0  0  0  0  0  0  0  0  0  0  0
   -1.7068    1.0908   -0.7491 H   0  0  0  0  0  0  0  0  0  0  0  0
   -0.4568    0.7332    1.4725 H   0  0  0  0  0  0  0  0  0  0  0  0
    0.3477   -1.5760    0.8345 H   0  0  0  0  0  0  0  0  0  0  0  0
    1.6416   -0.4846    1.4248 H   0  0  0  0  0  0  0  0  0  0  0  0
    2.1905   -1.5756   -0.5901 H   0  0  0  0  0  0  0  0  0  0  0  0
    1.2233    1.4383   -0.6555 H   0  0  0  0  0  0  0  0  0  0  0  0
   -2.5468   -0.4394    0.7568 H   0  0  0  0  0  0  0  0  0  0  0  0
  1  2  1  0  0  0  0
  2  3  1  0  0  0  0
  3  4  1  0  0  0  0
  2  5  1  0  0  0  0
  1  6  1  0  0  0  0
  1  7  1  0  0  0  0
  1  8  1  0  0  0  0
  2  9  1  0  0  0  0
  3 10  1  0  0  0  0
  3 11  1  0  0  0  0
  4 12  1  0  0  0  0
  5 13  1  0  0  0  0
  6 14  1  0  0  0  0
M  END
