 xtb: 6.7.1 (edcfbbe)
          04112511493D

 21 20  0     0  0            999 V2000
    2.4633   -0.0799   -0.9050 C   0  0  0  0  0  0  0  0  0  0  0  0
    1.2603   -0.2710    0.0197 C   0  0  0  0  0  0  0  0  0  0  0  0
    1.1267   -1.3393    0.2198 H   0  0  0  0  0  0  0  0  0  0  0  0
   -0.0117    0.3047   -0.6169 C   0  0  0  0  0  0  0  0  0  0  0  0
   -1.2745    0.0581    0.2179 C   0  0  0  0  0  0  0  0  0  0  0  0
   -2.3892    1.0075   -0.2183 C   0  0  0  0  0  0  0  0  0  0  0  0
   -1.7480   -1.3887    0.0961 C   0  0  0  0  0  0  0  0  0  0  0  0
    1.5015    0.2909    1.2983 O   0  0  0  0  0  0  0  0  0  0  0  0
    2.5877    0.9724   -1.1527 H   0  0  0  0  0  0  0  0  0  0  0  0
    3.3666   -0.4341   -0.4144 H   0  0  0  0  0  0  0  0  0  0  0  0
    2.3201   -0.6403   -1.8238 H   0  0  0  0  0  0  0  0  0  0  0  0
    0.1287    1.3818   -0.7415 H   0  0  0  0  0  0  0  0  0  0  0  0
   -0.1371   -0.1330   -1.6082 H   0  0  0  0  0  0  0  0  0  0  0  0
   -1.0301    0.2573    1.2675 H   0  0  0  0  0  0  0  0  0  0  0  0
   -2.0894    2.0447   -0.0874 H   0  0  0  0  0  0  0  0  0  0  0  0
   -3.2867    0.8346    0.3705 H   0  0  0  0  0  0  0  0  0  0  0  0
   -2.6303    0.8477   -1.2671 H   0  0  0  0  0  0  0  0  0  0  0  0
   -2.6371   -1.5463    0.7021 H   0  0  0  0  0  0  0  0  0  0  0  0
   -1.9911   -1.6215   -0.9386 H   0  0  0  0  0  0  0  0  0  0  0  0
   -0.9813   -2.0800    0.4356 H   0  0  0  0  0  0  0  0  0  0  0  0
    1.6743    1.2370    1.1904 H   0  0  0  0  0  0  0  0  0  0  0  0
  1  2  1  0  0  0  0
  2  3  1  0  0  0  0
  2  4  1  0  0  0  0
  4  5  1  0  0  0  0
  5  6  1  0  0  0  0
  5  7  1  0  0  0  0
  2  8  1  0  0  0  0
  1  9  1  0  0  0  0
  1 10  1  0  0  0  0
  1 11  1  0  0  0  0
  4 12  1  0  0  0  0
  4 13  1  0  0  0  0
  5 14  1  0  0  0  0
  6 15  1  0  0  0  0
  6 16  1  0  0  0  0
  6 17  1  0  0  0  0
  7 18  1  0  0  0  0
  7 19  1  0  0  0  0
  7 20  1  0  0  0  0
  8 21  1  0  0  0  0
M  END
