 xtb: 6.7.1 (edcfbbe)
          04112512143D

 21 20  0     0  0            999 V2000
    2.5480   -0.1685    0.6933 C   0  0  0  0  0  0  0  0  0  0  0  0
    1.1279   -0.6337    0.3920 C   0  0  0  0  0  0  0  0  0  0  0  0
    0.2333    0.5360   -0.0254 C   0  0  0  0  0  0  0  0  0  0  0  0
    0.3839    1.3597    0.6934 H   0  0  0  0  0  0  0  0  0  0  0  0
   -1.2740    0.1992   -0.0508 C   0  0  0  0  0  0  0  0  0  0  0  0
   -1.5676   -1.0250   -0.9154 C   0  0  0  0  0  0  0  0  0  0  0  0
   -1.8418    0.0275    1.3557 C   0  0  0  0  0  0  0  0  0  0  0  0
    0.6777    0.9553   -1.3074 O   0  0  0  0  0  0  0  0  0  0  0  0
    3.1816   -1.0183    0.9335 H   0  0  0  0  0  0  0  0  0  0  0  0
    2.5544    0.5192    1.5363 H   0  0  0  0  0  0  0  0  0  0  0  0
    2.9609    0.3414   -0.1735 H   0  0  0  0  0  0  0  0  0  0  0  0
    1.1522   -1.3525   -0.4270 H   0  0  0  0  0  0  0  0  0  0  0  0
    0.7055   -1.1153    1.2730 H   0  0  0  0  0  0  0  0  0  0  0  0
   -1.7734    1.0632   -0.5089 H   0  0  0  0  0  0  0  0  0  0  0  0
   -2.6364   -1.1091   -1.0963 H   0  0  0  0  0  0  0  0  0  0  0  0
   -1.0578   -0.9371   -1.8721 H   0  0  0  0  0  0  0  0  0  0  0  0
   -1.2304   -1.9332   -0.4233 H   0  0  0  0  0  0  0  0  0  0  0  0
   -2.9207   -0.0956    1.3051 H   0  0  0  0  0  0  0  0  0  0  0  0
   -1.6220    0.8984    1.9690 H   0  0  0  0  0  0  0  0  0  0  0  0
   -1.4236   -0.8506    1.8405 H   0  0  0  0  0  0  0  0  0  0  0  0
    0.1946    1.7498   -1.5691 H   0  0  0  0  0  0  0  0  0  0  0  0
  1  2  1  0  0  0  0
  2  3  1  0  0  0  0
  3  4  1  0  0  0  0
  3  5  1  0  0  0  0
  5  6  1  0  0  0  0
  5  7  1  0  0  0  0
  3  8  1  0  0  0  0
  1  9  1  0  0  0  0
  1 10  1  0  0  0  0
  1 11  1  0  0  0  0
  2 12  1  0  0  0  0
  2 13  1  0  0  0  0
  5 14  1  0  0  0  0
  6 15  1  0  0  0  0
  6 16  1  0  0  0  0
  6 17  1  0  0  0  0
  7 18  1  0  0  0  0
  7 19  1  0  0  0  0
  7 20  1  0  0  0  0
  8 21  1  0  0  0  0
M  END
