 xtb: 6.7.1 (edcfbbe)
          04112512193D

 17 16  0     0  0            999 V2000
   -2.5927    0.6757   -0.4970 C   0  0  0  0  0  0  0  0  0  0  0  0
   -1.7388    0.2008    0.6823 C   0  0  0  0  0  0  0  0  0  0  0  0
   -0.4288   -0.3344    0.1645 C   0  0  0  0  0  0  0  0  0  0  0  0
   -0.1861   -1.5086   -0.0240 O   0  0  0  0  0  0  0  0  0  0  0  0
    0.4228    0.6464   -0.1039 O   0  0  0  0  0  0  0  0  0  0  0  0
    1.7121    0.3096   -0.6417 C   0  0  0  0  0  0  0  0  0  0  0  0
    2.7101    0.0213    0.4693 C   0  0  0  0  0  0  0  0  0  0  0  0
   -2.7787   -0.1468   -1.1837 H   0  0  0  0  0  0  0  0  0  0  0  0
   -3.5450    1.0490   -0.1328 H   0  0  0  0  0  0  0  0  0  0  0  0
   -2.0831    1.4718   -1.0334 H   0  0  0  0  0  0  0  0  0  0  0  0
   -2.2495   -0.5974    1.2195 H   0  0  0  0  0  0  0  0  0  0  0  0
   -1.5373    1.0364    1.3511 H   0  0  0  0  0  0  0  0  0  0  0  0
    1.6014   -0.5610   -1.2954 H   0  0  0  0  0  0  0  0  0  0  0  0
    2.0060    1.1851   -1.2216 H   0  0  0  0  0  0  0  0  0  0  0  0
    2.7706    0.8686    1.1470 H   0  0  0  0  0  0  0  0  0  0  0  0
    2.4005   -0.8587    1.0287 H   0  0  0  0  0  0  0  0  0  0  0  0
    3.6878   -0.1625    0.0360 H   0  0  0  0  0  0  0  0  0  0  0  0
  1  2  1  0  0  0  0
  2  3  1  0  0  0  0
  3  4  2  0  0  0  0
  3  5  1  0  0  0  0
  5  6  1  0  0  0  0
  6  7  1  0  0  0  0
  1  8  1  0  0  0  0
  1  9  1  0  0  0  0
  1 10  1  0  0  0  0
  2 11  1  0  0  0  0
  2 12  1  0  0  0  0
  6 13  1  0  0  0  0
  6 14  1  0  0  0  0
  7 15  1  0  0  0  0
  7 16  1  0  0  0  0
  7 17  1  0  0  0  0
M  END
