 xtb: 6.7.1 (edcfbbe)
          04112512223D

 23 22  0     0  0            999 V2000
   -1.4981    1.0556    0.5942 C   0  0  0  0  0  0  0  0  0  0  0  0
   -1.1531   -0.3224    0.0341 C   0  0  0  0  0  0  0  0  0  0  0  0
   -2.3334   -0.8393   -0.7923 C   0  0  0  0  0  0  0  0  0  0  0  0
    0.1013   -0.3262   -0.8512 C   0  0  0  0  0  0  0  0  0  0  0  0
    1.4755   -0.0955   -0.1946 C   0  0  0  0  0  0  0  0  0  0  0  0
    1.7936    1.3764    0.0666 C   0  0  0  0  0  0  0  0  0  0  0  0
    1.6609   -0.9171    1.0793 C   0  0  0  0  0  0  0  0  0  0  0  0
   -2.4862    1.0353    1.0498 H   0  0  0  0  0  0  0  0  0  0  0  0
   -0.7890    1.3645    1.3559 H   0  0  0  0  0  0  0  0  0  0  0  0
   -1.5028    1.7995   -0.1992 H   0  0  0  0  0  0  0  0  0  0  0  0
   -1.0019   -1.0132    0.8689 H   0  0  0  0  0  0  0  0  0  0  0  0
   -2.5181   -0.1826   -1.6399 H   0  0  0  0  0  0  0  0  0  0  0  0
   -2.1334   -1.8394   -1.1705 H   0  0  0  0  0  0  0  0  0  0  0  0
   -3.2358   -0.8785   -0.1863 H   0  0  0  0  0  0  0  0  0  0  0  0
   -0.0305    0.4161   -1.6427 H   0  0  0  0  0  0  0  0  0  0  0  0
    0.1419   -1.3063   -1.3351 H   0  0  0  0  0  0  0  0  0  0  0  0
    2.2133   -0.4502   -0.9263 H   0  0  0  0  0  0  0  0  0  0  0  0
    1.1956    1.7776    0.8784 H   0  0  0  0  0  0  0  0  0  0  0  0
    2.8419    1.4836    0.3385 H   0  0  0  0  0  0  0  0  0  0  0  0
    1.6105    1.9724   -0.8243 H   0  0  0  0  0  0  0  0  0  0  0  0
    1.4157   -1.9615    0.9009 H   0  0  0  0  0  0  0  0  0  0  0  0
    2.6949   -0.8600    1.4124 H   0  0  0  0  0  0  0  0  0  0  0  0
    1.0280   -0.5415    1.8794 H   0  0  0  0  0  0  0  0  0  0  0  0
  1  2  1  0  0  0  0
  2  3  1  0  0  0  0
  2  4  1  0  0  0  0
  4  5  1  0  0  0  0
  5  6  1  0  0  0  0
  5  7  1  0  0  0  0
  1  8  1  0  0  0  0
  1  9  1  0  0  0  0
  1 10  1  0  0  0  0
  2 11  1  0  0  0  0
  3 12  1  0  0  0  0
  3 13  1  0  0  0  0
  3 14  1  0  0  0  0
  4 15  1  0  0  0  0
  4 16  1  0  0  0  0
  5 17  1  0  0  0  0
  6 18  1  0  0  0  0
  6 19  1  0  0  0  0
  6 20  1  0  0  0  0
  7 21  1  0  0  0  0
  7 22  1  0  0  0  0
  7 23  1  0  0  0  0
M  END
