 xtb: 6.7.1 (edcfbbe)
          04112511583D

 20 19  0     0  0            999 V2000
    2.8163    0.2168    0.1530 C   0  0  0  0  0  0  0  0  0  0  0  0
    1.4835   -0.3613   -0.3096 C   0  0  0  0  0  0  0  0  0  0  0  0
    0.3066    0.4694    0.1987 C   0  0  0  0  0  0  0  0  0  0  0  0
   -1.0552    0.0107   -0.3349 C   0  0  0  0  0  0  0  0  0  0  0  0
   -2.1292    1.0331    0.0358 C   0  0  0  0  0  0  0  0  0  0  0  0
   -1.4423   -1.3649    0.2041 C   0  0  0  0  0  0  0  0  0  0  0  0
    3.6431   -0.3882   -0.2114 H   0  0  0  0  0  0  0  0  0  0  0  0
    2.9426    1.2312   -0.2188 H   0  0  0  0  0  0  0  0  0  0  0  0
    2.8622    0.2431    1.2395 H   0  0  0  0  0  0  0  0  0  0  0  0
    1.4598   -0.3883   -1.4016 H   0  0  0  0  0  0  0  0  0  0  0  0
    1.3977   -1.3873    0.0512 H   0  0  0  0  0  0  0  0  0  0  0  0
    0.2905    0.4417    1.2910 H   0  0  0  0  0  0  0  0  0  0  0  0
    0.4641    1.5088   -0.1009 H   0  0  0  0  0  0  0  0  0  0  0  0
   -0.9955   -0.0478   -1.4281 H   0  0  0  0  0  0  0  0  0  0  0  0
   -1.8872    2.0118   -0.3723 H   0  0  0  0  0  0  0  0  0  0  0  0
   -2.2074    1.1219    1.1174 H   0  0  0  0  0  0  0  0  0  0  0  0
   -3.0976    0.7288   -0.3543 H   0  0  0  0  0  0  0  0  0  0  0  0
   -1.4620   -1.3518    1.2919 H   0  0  0  0  0  0  0  0  0  0  0  0
   -2.4307   -1.6446   -0.1533 H   0  0  0  0  0  0  0  0  0  0  0  0
   -0.7380   -2.1258   -0.1206 H   0  0  0  0  0  0  0  0  0  0  0  0
  1  2  1  0  0  0  0
  2  3  1  0  0  0  0
  3  4  1  0  0  0  0
  4  5  1  0  0  0  0
  4  6  1  0  0  0  0
  1  7  1  0  0  0  0
  1  8  1  0  0  0  0
  1  9  1  0  0  0  0
  2 10  1  0  0  0  0
  2 11  1  0  0  0  0
  3 12  1  0  0  0  0
  3 13  1  0  0  0  0
  4 14  1  0  0  0  0
  5 15  1  0  0  0  0
  5 16  1  0  0  0  0
  5 17  1  0  0  0  0
  6 18  1  0  0  0  0
  6 19  1  0  0  0  0
  6 20  1  0  0  0  0
M  END
