 xtb: 6.7.1 (edcfbbe)
          04112511593D

 22 22  0     0  0            999 V2000
   -4.2756    0.8004    0.0009 C   0  0  0  0  0  0  0  0  0  0  0  0
   -3.4693   -0.3670   -0.0011 O   0  0  0  0  0  0  0  0  0  0  0  0
   -2.1252   -0.2393   -0.0002 C   0  0  0  0  0  0  0  0  0  0  0  0
   -1.4000   -1.4380   -0.0039 C   0  0  0  0  0  0  0  0  0  0  0  0
   -0.0271   -1.4181   -0.0037 C   0  0  0  0  0  0  0  0  0  0  0  0
    0.6634   -0.2021    0.0003 C   0  0  0  0  0  0  0  0  0  0  0  0
   -0.0589    0.9895    0.0044 C   0  0  0  0  0  0  0  0  0  0  0  0
   -1.4387    0.9758    0.0040 C   0  0  0  0  0  0  0  0  0  0  0  0
    2.1320   -0.2200   -0.0009 C   0  0  0  0  0  0  0  0  0  0  0  0
    2.8104   -1.2341   -0.0037 O   0  0  0  0  0  0  0  0  0  0  0  0
    2.6755    1.0010    0.0024 O   0  0  0  0  0  0  0  0  0  0  0  0
    4.1007    1.0748    0.0016 C   0  0  0  0  0  0  0  0  0  0  0  0
   -4.0990    1.3978    0.8979 H   0  0  0  0  0  0  0  0  0  0  0  0
   -5.3005    0.4373   -0.0021 H   0  0  0  0  0  0  0  0  0  0  0  0
   -4.0956    1.4033   -0.8918 H   0  0  0  0  0  0  0  0  0  0  0  0
   -1.9478   -2.3663   -0.0072 H   0  0  0  0  0  0  0  0  0  0  0  0
    0.5431   -2.3344   -0.0066 H   0  0  0  0  0  0  0  0  0  0  0  0
    0.4713    1.9283    0.0076 H   0  0  0  0  0  0  0  0  0  0  0  0
   -1.9723    1.9118    0.0068 H   0  0  0  0  0  0  0  0  0  0  0  0
    4.5001    0.5873   -0.8890 H   0  0  0  0  0  0  0  0  0  0  0  0
    4.5017    0.5771    0.8858 H   0  0  0  0  0  0  0  0  0  0  0  0
    4.3382    2.1339    0.0073 H   0  0  0  0  0  0  0  0  0  0  0  0
  1  2  1  0  0  0  0
  2  3  1  0  0  0  0
  3  4  4  0  0  0  0
  4  5  2  0  0  0  0
  5  6  4  0  0  0  0
  6  7  4  0  0  0  0
  3  8  4  0  0  0  0
  7  8  4  0  0  0  0
  6  9  1  0  0  0  0
  9 10  2  0  0  0  0
  9 11  1  0  0  0  0
 11 12  1  0  0  0  0
  1 13  1  0  0  0  0
  1 14  1  0  0  0  0
  1 15  1  0  0  0  0
  4 16  1  0  0  0  0
  5 17  1  0  0  0  0
  7 18  1  0  0  0  0
  8 19  1  0  0  0  0
 12 20  1  0  0  0  0
 12 21  1  0  0  0  0
 12 22  1  0  0  0  0
M  END
