 xtb: 6.7.1 (edcfbbe)
          04112510523D

 12 11  0     0  0            999 V2000
    0.2182   -0.9794   -0.1816 C   0  0  0  0  0  0  0  0  0  0  0  0
    0.7058   -1.8473   -0.6401 H   0  0  0  0  0  0  0  0  0  0  0  0
    1.1877    0.2141   -0.2386 C   0  0  0  0  0  0  0  0  0  0  0  0
    1.3593    0.6457   -1.4935 F   0  0  0  0  0  0  0  0  0  0  0  0
    2.3937   -0.1588    0.2051 F   0  0  0  0  0  0  0  0  0  0  0  0
    0.8131    1.2595    0.4979 F   0  0  0  0  0  0  0  0  0  0  0  0
   -0.9734   -0.8229   -0.8812 O   0  0  0  0  0  0  0  0  0  0  0  0
   -1.7882    0.2456   -0.7084 C   0  0  0  0  0  0  0  0  0  0  0  0
   -1.2254    1.3996   -1.1541 F   0  0  0  0  0  0  0  0  0  0  0  0
   -2.0930    0.4829    0.5859 F   0  0  0  0  0  0  0  0  0  0  0  0
   -0.0428   -1.3465    1.5626 Cl  0  0  0  0  0  0  0  0  0  0  0  0
   -2.7116    0.0642   -1.2760 H   0  0  0  0  0  0  0  0  0  0  0  0
  1  2  1  0  0  0  0
  1  3  1  0  0  0  0
  3  4  1  0  0  0  0
  3  5  1  0  0  0  0
  3  6  1  0  0  0  0
  1  7  1  0  0  0  0
  7  8  1  0  0  0  0
  8  9  1  0  0  0  0
  8 10  1  0  0  0  0
  1 11  1  0  0  0  0
  8 12  1  0  0  0  0
M  END
