 xtb: 6.7.1 (edcfbbe)
          04112512243D

 23 22  0     0  0            999 V2000
    1.7523    0.8313    0.9598 C   0  0  0  0  0  0  0  0  0  0  0  0
    1.3620    0.5909   -0.4947 C   0  0  0  0  0  0  0  0  0  0  0  0
    0.2462   -0.4327   -0.7709 C   0  0  0  0  0  0  0  0  0  0  0  0
    0.1247   -0.4250   -1.8633 H   0  0  0  0  0  0  0  0  0  0  0  0
    0.6905   -1.8452   -0.3888 C   0  0  0  0  0  0  0  0  0  0  0  0
   -1.1573   -0.1065   -0.2089 C   0  0  0  0  0  0  0  0  0  0  0  0
   -1.3567   -0.4025    1.2775 C   0  0  0  0  0  0  0  0  0  0  0  0
   -1.5640    1.3353   -0.5133 C   0  0  0  0  0  0  0  0  0  0  0  0
    0.9856    1.3889    1.4901 H   0  0  0  0  0  0  0  0  0  0  0  0
    1.9303   -0.1041    1.4824 H   0  0  0  0  0  0  0  0  0  0  0  0
    2.6696    1.4163    0.9948 H   0  0  0  0  0  0  0  0  0  0  0  0
    2.2477    0.2350   -1.0288 H   0  0  0  0  0  0  0  0  0  0  0  0
    1.0843    1.5458   -0.9441 H   0  0  0  0  0  0  0  0  0  0  0  0
   -0.0897   -2.5644   -0.6283 H   0  0  0  0  0  0  0  0  0  0  0  0
    1.5864   -2.1160   -0.9433 H   0  0  0  0  0  0  0  0  0  0  0  0
    0.9130   -1.9202    0.6712 H   0  0  0  0  0  0  0  0  0  0  0  0
   -1.8496   -0.7629   -0.7536 H   0  0  0  0  0  0  0  0  0  0  0  0
   -0.7067    0.2022    1.9000 H   0  0  0  0  0  0  0  0  0  0  0  0
   -1.1723   -1.4500    1.4965 H   0  0  0  0  0  0  0  0  0  0  0  0
   -2.3868   -0.1805    1.5502 H   0  0  0  0  0  0  0  0  0  0  0  0
   -2.6172    1.4819   -0.2836 H   0  0  0  0  0  0  0  0  0  0  0  0
   -1.4096    1.5649   -1.5654 H   0  0  0  0  0  0  0  0  0  0  0  0
   -0.9883    2.0367    0.0845 H   0  0  0  0  0  0  0  0  0  0  0  0
  1  2  1  0  0  0  0
  2  3  1  0  0  0  0
  3  4  1  0  0  0  0
  3  5  1  0  0  0  0
  3  6  1  0  0  0  0
  6  7  1  0  0  0  0
  6  8  1  0  0  0  0
  1  9  1  0  0  0  0
  1 10  1  0  0  0  0
  1 11  1  0  0  0  0
  2 12  1  0  0  0  0
  2 13  1  0  0  0  0
  5 14  1  0  0  0  0
  5 15  1  0  0  0  0
  5 16  1  0  0  0  0
  6 17  1  0  0  0  0
  7 18  1  0  0  0  0
  7 19  1  0  0  0  0
  7 20  1  0  0  0  0
  8 21  1  0  0  0  0
  8 22  1  0  0  0  0
  8 23  1  0  0  0  0
M  END
