 xtb: 6.7.1 (edcfbbe)
          04112511443D

 25 25  0     0  0            999 V2000
    3.4105    0.9704    0.1522 C   0  0  0  0  0  0  0  0  0  0  0  0
    2.5568   -0.2592    0.0405 C   0  0  0  0  0  0  0  0  0  0  0  0
    3.1097   -1.4618    0.1023 C   0  0  0  0  0  0  0  0  0  0  0  0
    1.0784   -0.0479   -0.2256 C   0  0  0  0  0  0  0  0  0  0  0  0
    0.9796    0.0989   -1.3097 H   0  0  0  0  0  0  0  0  0  0  0  0
    0.2229   -1.2609    0.1778 C   0  0  0  0  0  0  0  0  0  0  0  0
   -1.2287   -0.9138    0.5657 C   0  0  0  0  0  0  0  0  0  0  0  0
   -1.7090    0.3706   -0.0349 C   0  0  0  0  0  0  0  0  0  0  0  0
   -0.8724    1.4212   -0.0486 C   0  0  0  0  0  0  0  0  0  0  0  0
    0.5185    1.2334    0.4333 C   0  0  0  0  0  0  0  0  0  0  0  0
   -3.0567    0.4668   -0.5524 C   0  0  0  0  0  0  0  0  0  0  0  0
   -3.8718   -0.4381   -0.5914 O   0  0  0  0  0  0  0  0  0  0  0  0
    3.2335    1.6377   -0.6890 H   0  0  0  0  0  0  0  0  0  0  0  0
    3.1932    1.5102    1.0718 H   0  0  0  0  0  0  0  0  0  0  0  0
    4.4620    0.6973    0.1601 H   0  0  0  0  0  0  0  0  0  0  0  0
    2.5539   -2.3761    0.0013 H   0  0  0  0  0  0  0  0  0  0  0  0
    4.1702   -1.5775    0.2512 H   0  0  0  0  0  0  0  0  0  0  0  0
    0.2091   -1.9708   -0.6494 H   0  0  0  0  0  0  0  0  0  0  0  0
    0.6852   -1.7557    1.0320 H   0  0  0  0  0  0  0  0  0  0  0  0
   -1.9054   -1.7207    0.2812 H   0  0  0  0  0  0  0  0  0  0  0  0
   -1.2886   -0.8078    1.6524 H   0  0  0  0  0  0  0  0  0  0  0  0
   -1.1752    2.3758   -0.4522 H   0  0  0  0  0  0  0  0  0  0  0  0
    1.1241    2.1017    0.1897 H   0  0  0  0  0  0  0  0  0  0  0  0
    0.5211    1.0922    1.5173 H   0  0  0  0  0  0  0  0  0  0  0  0
   -3.3280    1.4671   -0.9403 H   0  0  0  0  0  0  0  0  0  0  0  0
  1  2  1  0  0  0  0
  2  3  2  0  0  0  0
  2  4  1  0  0  0  0
  4  5  1  0  0  0  0
  4  6  1  0  0  0  0
  6  7  1  0  0  0  0
  7  8  1  0  0  0  0
  8  9  2  0  0  0  0
  4 10  1  0  0  0  0
  9 10  1  0  0  0  0
  8 11  1  0  0  0  0
 11 12  2  0  0  0  0
  1 13  1  0  0  0  0
  1 14  1  0  0  0  0
  1 15  1  0  0  0  0
  3 16  1  0  0  0  0
  3 17  1  0  0  0  0
  6 18  1  0  0  0  0
  6 19  1  0  0  0  0
  7 20  1  0  0  0  0
  7 21  1  0  0  0  0
  9 22  1  0  0  0  0
 10 23  1  0  0  0  0
 10 24  1  0  0  0  0
 11 25  1  0  0  0  0
M  END
