 xtb: 6.7.1 (edcfbbe)
          04112512193D

 17 16  0     0  0            999 V2000
   -2.0346    1.1691    0.7991 C   0  0  0  0  0  0  0  0  0  0  0  0
   -1.9620   -0.0864   -0.0585 C   0  0  0  0  0  0  0  0  0  0  0  0
   -0.5623   -0.5155   -0.4159 C   0  0  0  0  0  0  0  0  0  0  0  0
   -0.3138   -1.4712   -1.1285 O   0  0  0  0  0  0  0  0  0  0  0  0
    0.3755    0.2437    0.1235 O   0  0  0  0  0  0  0  0  0  0  0  0
    1.7472   -0.0866   -0.1478 C   0  0  0  0  0  0  0  0  0  0  0  0
    2.6242    0.7126    0.7967 C   0  0  0  0  0  0  0  0  0  0  0  0
   -1.5771    2.0097    0.2854 H   0  0  0  0  0  0  0  0  0  0  0  0
   -3.0733    1.4087    1.0069 H   0  0  0  0  0  0  0  0  0  0  0  0
   -1.5139    1.0200    1.7404 H   0  0  0  0  0  0  0  0  0  0  0  0
   -2.5009    0.0501   -0.9986 H   0  0  0  0  0  0  0  0  0  0  0  0
   -2.4290   -0.9323    0.4513 H   0  0  0  0  0  0  0  0  0  0  0  0
    1.8780   -1.1657   -0.0148 H   0  0  0  0  0  0  0  0  0  0  0  0
    1.9570    0.1552   -1.1949 H   0  0  0  0  0  0  0  0  0  0  0  0
    3.6664    0.4893    0.5937 H   0  0  0  0  0  0  0  0  0  0  0  0
    2.4503    1.7750    0.6548 H   0  0  0  0  0  0  0  0  0  0  0  0
    2.3968    0.4546    1.8268 H   0  0  0  0  0  0  0  0  0  0  0  0
  1  2  1  0  0  0  0
  2  3  1  0  0  0  0
  3  4  2  0  0  0  0
  3  5  1  0  0  0  0
  5  6  1  0  0  0  0
  6  7  1  0  0  0  0
  1  8  1  0  0  0  0
  1  9  1  0  0  0  0
  1 10  1  0  0  0  0
  2 11  1  0  0  0  0
  2 12  1  0  0  0  0
  6 13  1  0  0  0  0
  6 14  1  0  0  0  0
  7 15  1  0  0  0  0
  7 16  1  0  0  0  0
  7 17  1  0  0  0  0
M  END
