 xtb: 6.7.1 (edcfbbe)
          04112512193D

 17 16  0     0  0            999 V2000
   -2.7694    0.2413    0.4539 C   0  0  0  0  0  0  0  0  0  0  0  0
   -1.6764    0.5485   -0.5729 C   0  0  0  0  0  0  0  0  0  0  0  0
   -0.4099   -0.1736   -0.1903 C   0  0  0  0  0  0  0  0  0  0  0  0
   -0.2485   -1.3737   -0.2687 O   0  0  0  0  0  0  0  0  0  0  0  0
    0.5047    0.6630    0.2827 O   0  0  0  0  0  0  0  0  0  0  0  0
    1.7687    0.1292    0.7123 C   0  0  0  0  0  0  0  0  0  0  0  0
    2.7394    0.0134   -0.4529 C   0  0  0  0  0  0  0  0  0  0  0  0
   -2.9236   -0.8328    0.5230 H   0  0  0  0  0  0  0  0  0  0  0  0
   -2.4861    0.6163    1.4342 H   0  0  0  0  0  0  0  0  0  0  0  0
   -3.7001    0.7130    0.1537 H   0  0  0  0  0  0  0  0  0  0  0  0
   -1.4744    1.6175   -0.6108 H   0  0  0  0  0  0  0  0  0  0  0  0
   -1.9889    0.1911   -1.5542 H   0  0  0  0  0  0  0  0  0  0  0  0
    2.1269    0.8386    1.4588 H   0  0  0  0  0  0  0  0  0  0  0  0
    1.5964   -0.8504    1.1686 H   0  0  0  0  0  0  0  0  0  0  0  0
    2.3664   -0.7066   -1.1779 H   0  0  0  0  0  0  0  0  0  0  0  0
    2.8567    0.9778   -0.9394 H   0  0  0  0  0  0  0  0  0  0  0  0
    3.7034   -0.3234   -0.0859 H   0  0  0  0  0  0  0  0  0  0  0  0
  1  2  1  0  0  0  0
  2  3  1  0  0  0  0
  3  4  2  0  0  0  0
  3  5  1  0  0  0  0
  5  6  1  0  0  0  0
  6  7  1  0  0  0  0
  1  8  1  0  0  0  0
  1  9  1  0  0  0  0
  1 10  1  0  0  0  0
  2 11  1  0  0  0  0
  2 12  1  0  0  0  0
  6 13  1  0  0  0  0
  6 14  1  0  0  0  0
  7 15  1  0  0  0  0
  7 16  1  0  0  0  0
  7 17  1  0  0  0  0
M  END
