 xtb: 6.7.1 (edcfbbe)
          04112512143D

 21 20  0     0  0            999 V2000
    2.3090   -1.0137   -0.6064 C   0  0  0  0  0  0  0  0  0  0  0  0
    1.5926    0.3149   -0.3985 C   0  0  0  0  0  0  0  0  0  0  0  0
    0.3522    0.2065    0.5015 C   0  0  0  0  0  0  0  0  0  0  0  0
    0.6361   -0.3366    1.4119 H   0  0  0  0  0  0  0  0  0  0  0  0
   -0.8291   -0.5453   -0.1517 C   0  0  0  0  0  0  0  0  0  0  0  0
   -1.8680   -0.8888    0.9154 C   0  0  0  0  0  0  0  0  0  0  0  0
   -1.4869    0.2512   -1.2787 C   0  0  0  0  0  0  0  0  0  0  0  0
   -0.0325    1.4863    0.9745 O   0  0  0  0  0  0  0  0  0  0  0  0
    1.6878   -1.7142   -1.1579 H   0  0  0  0  0  0  0  0  0  0  0  0
    2.5659   -1.4608    0.3510 H   0  0  0  0  0  0  0  0  0  0  0  0
    3.2251   -0.8563   -1.1698 H   0  0  0  0  0  0  0  0  0  0  0  0
    2.2769    1.0168    0.0846 H   0  0  0  0  0  0  0  0  0  0  0  0
    1.3130    0.7365   -1.3659 H   0  0  0  0  0  0  0  0  0  0  0  0
   -0.4328   -1.4771   -0.5645 H   0  0  0  0  0  0  0  0  0  0  0  0
   -2.1925    0.0186    1.4206 H   0  0  0  0  0  0  0  0  0  0  0  0
   -2.7338   -1.3684    0.4658 H   0  0  0  0  0  0  0  0  0  0  0  0
   -1.4460   -1.5609    1.6588 H   0  0  0  0  0  0  0  0  0  0  0  0
   -0.7632    0.5475   -2.0338 H   0  0  0  0  0  0  0  0  0  0  0  0
   -1.9759    1.1390   -0.8839 H   0  0  0  0  0  0  0  0  0  0  0  0
   -2.2450   -0.3601   -1.7620 H   0  0  0  0  0  0  0  0  0  0  0  0
   -0.2312    2.0453    0.2108 H   0  0  0  0  0  0  0  0  0  0  0  0
  1  2  1  0  0  0  0
  2  3  1  0  0  0  0
  3  4  1  0  0  0  0
  3  5  1  0  0  0  0
  5  6  1  0  0  0  0
  5  7  1  0  0  0  0
  3  8  1  0  0  0  0
  1  9  1  0  0  0  0
  1 10  1  0  0  0  0
  1 11  1  0  0  0  0
  2 12  1  0  0  0  0
  2 13  1  0  0  0  0
  5 14  1  0  0  0  0
  6 15  1  0  0  0  0
  6 16  1  0  0  0  0
  6 17  1  0  0  0  0
  7 18  1  0  0  0  0
  7 19  1  0  0  0  0
  7 20  1  0  0  0  0
  8 21  1  0  0  0  0
M  END
