 xtb: 6.7.1 (edcfbbe)
          04112510483D

 27 27  0     0  0            999 V2000
   -2.7682   -1.3191   -2.0321 C   0  0  0  0  0  0  0  0  0  0  0  0
   -3.4917   -0.8787   -0.7644 C   0  0  0  0  0  0  0  0  0  0  0  0
   -2.5771   -0.8977    0.4630 C   0  0  0  0  0  0  0  0  0  0  0  0
   -2.1578   -1.9034    0.5747 H   0  0  0  0  0  0  0  0  0  0  0  0
   -3.3150   -0.5186    1.7429 C   0  0  0  0  0  0  0  0  0  0  0  0
   -1.4001   -0.0323    0.2631 N   0  0  0  0  0  0  0  0  0  0  0  0
   -0.1521   -0.6570    0.2453 C   0  0  0  0  0  0  0  0  0  0  0  0
   -0.0394   -1.8615    0.4004 O   0  0  0  0  0  0  0  0  0  0  0  0
    0.9666    0.2320    0.0342 C   0  0  0  0  0  0  0  0  0  0  0  0
    0.8219    1.5711   -0.1369 C   0  0  0  0  0  0  0  0  0  0  0  0
   -0.4456    2.0636   -0.1013 N   0  0  0  0  0  0  0  0  0  0  0  0
   -1.5853    1.3171    0.0902 C   0  0  0  0  0  0  0  0  0  0  0  0
   -2.6715    1.8660    0.0976 O   0  0  0  0  0  0  0  0  0  0  0  0
    1.9387    2.5254   -0.3449 C   0  0  0  0  0  0  0  0  0  0  0  0
    2.6781   -0.5940    0.0173 Br  0  0  0  0  0  0  0  0  0  0  0  0
   -3.4689   -1.3883   -2.8592 H   0  0  0  0  0  0  0  0  0  0  0  0
   -1.9902   -0.6080   -2.3056 H   0  0  0  0  0  0  0  0  0  0  0  0
   -2.3029   -2.2925   -1.8877 H   0  0  0  0  0  0  0  0  0  0  0  0
   -3.9028    0.1228   -0.8952 H   0  0  0  0  0  0  0  0  0  0  0  0
   -4.3173   -1.5613   -0.5626 H   0  0  0  0  0  0  0  0  0  0  0  0
   -4.1049   -1.2405    1.9245 H   0  0  0  0  0  0  0  0  0  0  0  0
   -2.6323   -0.5290    2.5895 H   0  0  0  0  0  0  0  0  0  0  0  0
   -3.7549    0.4705    1.6515 H   0  0  0  0  0  0  0  0  0  0  0  0
   -0.5988    3.0606   -0.2194 H   0  0  0  0  0  0  0  0  0  0  0  0
    2.4610    2.6890    0.5972 H   0  0  0  0  0  0  0  0  0  0  0  0
    1.5740    3.4773   -0.7158 H   0  0  0  0  0  0  0  0  0  0  0  0
    2.6624    2.1119   -1.0439 H   0  0  0  0  0  0  0  0  0  0  0  0
  1  2  1  0  0  0  0
  2  3  1  0  0  0  0
  3  4  1  0  0  0  0
  3  5  1  0  0  0  0
  3  6  1  0  0  0  0
  6  7  1  0  0  0  0
  7  8  2  0  0  0  0
  7  9  1  0  0  0  0
  9 10  2  0  0  0  0
 10 11  1  0  0  0  0
  6 12  1  0  0  0  0
 11 12  1  0  0  0  0
 12 13  2  0  0  0  0
 10 14  1  0  0  0  0
  9 15  1  0  0  0  0
  1 16  1  0  0  0  0
  1 17  1  0  0  0  0
  1 18  1  0  0  0  0
  2 19  1  0  0  0  0
  2 20  1  0  0  0  0
  5 21  1  0  0  0  0
  5 22  1  0  0  0  0
  5 23  1  0  0  0  0
 11 24  1  0  0  0  0
 14 25  1  0  0  0  0
 14 26  1  0  0  0  0
 14 27  1  0  0  0  0
M  END
