 xtb: 6.7.1 (edcfbbe)
          04112512203D

 18 17  0     0  0            999 V2000
   -2.2270    0.9128    0.1897 C   0  0  0  0  0  0  0  0  0  0  0  0
   -0.8561    0.6641   -0.4540 C   0  0  0  0  0  0  0  0  0  0  0  0
   -0.0317   -0.4083    0.2676 C   0  0  0  0  0  0  0  0  0  0  0  0
   -0.0593   -0.2037    1.3446 H   0  0  0  0  0  0  0  0  0  0  0  0
   -0.5856   -1.8076    0.0143 C   0  0  0  0  0  0  0  0  0  0  0  0
    1.4315   -0.3410   -0.1916 C   0  0  0  0  0  0  0  0  0  0  0  0
    2.0595    0.8868    0.1093 O   0  0  0  0  0  0  0  0  0  0  0  0
   -3.0307    0.7481   -0.5224 H   0  0  0  0  0  0  0  0  0  0  0  0
   -2.3882    0.2466    1.0335 H   0  0  0  0  0  0  0  0  0  0  0  0
   -2.3078    1.9332    0.5544 H   0  0  0  0  0  0  0  0  0  0  0  0
   -0.2753    1.5884   -0.4597 H   0  0  0  0  0  0  0  0  0  0  0  0
   -0.9789    0.3577   -1.4944 H   0  0  0  0  0  0  0  0  0  0  0  0
   -1.6299   -1.8634    0.3080 H   0  0  0  0  0  0  0  0  0  0  0  0
   -0.0279   -2.5502    0.5802 H   0  0  0  0  0  0  0  0  0  0  0  0
   -0.5123   -2.0542   -1.0426 H   0  0  0  0  0  0  0  0  0  0  0  0
    1.4836   -0.4325   -1.2797 H   0  0  0  0  0  0  0  0  0  0  0  0
    1.9978   -1.1723    0.2503 H   0  0  0  0  0  0  0  0  0  0  0  0
    2.0743    1.0039    1.0694 H   0  0  0  0  0  0  0  0  0  0  0  0
  1  2  1  0  0  0  0
  2  3  1  0  0  0  0
  3  4  1  0  0  0  0
  3  5  1  0  0  0  0
  3  6  1  0  0  0  0
  6  7  1  0  0  0  0
  1  8  1  0  0  0  0
  1  9  1  0  0  0  0
  1 10  1  0  0  0  0
  2 11  1  0  0  0  0
  2 12  1  0  0  0  0
  5 13  1  0  0  0  0
  5 14  1  0  0  0  0
  5 15  1  0  0  0  0
  6 16  1  0  0  0  0
  6 17  1  0  0  0  0
  7 18  1  0  0  0  0
M  END
