 xtb: 6.7.1 (edcfbbe)
          04112512013D

 22 22  0     0  0            999 V2000
    2.7791   -0.4097    1.7947 C   0  0  0  0  0  0  0  0  0  0  0  0
    3.2090   -1.0717    0.4850 C   0  0  0  0  0  0  0  0  0  0  0  0
    3.3034   -0.0792   -0.6480 C   0  0  0  0  0  0  0  0  0  0  0  0
    4.3685    0.1441   -1.2145 O   0  0  0  0  0  0  0  0  0  0  0  0
    2.2150    0.6438   -1.0203 N   0  0  0  0  0  0  0  0  0  0  0  0
    0.8741    0.6262   -0.6321 C   0  0  0  0  0  0  0  0  0  0  0  0
    0.1896    1.8428   -0.5814 C   0  0  0  0  0  0  0  0  0  0  0  0
   -1.1435    1.8896   -0.2281 C   0  0  0  0  0  0  0  0  0  0  0  0
   -1.8250    0.7202    0.0748 C   0  0  0  0  0  0  0  0  0  0  0  0
   -1.1586   -0.4966   -0.0005 C   0  0  0  0  0  0  0  0  0  0  0  0
    0.1775   -0.5485   -0.3588 C   0  0  0  0  0  0  0  0  0  0  0  0
   -1.9999   -1.9738    0.3395 Cl  0  0  0  0  0  0  0  0  0  0  0  0
   -3.4979    0.7783    0.5271 Cl  0  0  0  0  0  0  0  0  0  0  0  0
    2.8147   -1.1410    2.5971 H   0  0  0  0  0  0  0  0  0  0  0  0
    1.7682   -0.0178    1.7289 H   0  0  0  0  0  0  0  0  0  0  0  0
    3.4550    0.4050    2.0425 H   0  0  0  0  0  0  0  0  0  0  0  0
    2.5299   -1.8822    0.2284 H   0  0  0  0  0  0  0  0  0  0  0  0
    4.2079   -1.4965    0.6004 H   0  0  0  0  0  0  0  0  0  0  0  0
    2.4562    1.3968   -1.6577 H   0  0  0  0  0  0  0  0  0  0  0  0
    0.7086    2.7585   -0.8133 H   0  0  0  0  0  0  0  0  0  0  0  0
   -1.6652    2.8308   -0.1820 H   0  0  0  0  0  0  0  0  0  0  0  0
    0.6510   -1.5104   -0.4403 H   0  0  0  0  0  0  0  0  0  0  0  0
  1  2  1  0  0  0  0
  2  3  1  0  0  0  0
  3  4  2  0  0  0  0
  3  5  4  0  0  0  0
  5  6  1  0  0  0  0
  6  7  4  0  0  0  0
  7  8  4  0  0  0  0
  8  9  4  0  0  0  0
  9 10  4  0  0  0  0
  6 11  4  0  0  0  0
 10 11  4  0  0  0  0
 10 12  1  0  0  0  0
  9 13  1  0  0  0  0
  1 14  1  0  0  0  0
  1 15  1  0  0  0  0
  1 16  1  0  0  0  0
  2 17  1  0  0  0  0
  2 18  1  0  0  0  0
  5 19  1  0  0  0  0
  7 20  1  0  0  0  0
  8 21  1  0  0  0  0
 11 22  1  0  0  0  0
M  END
