 xtb: 6.7.1 (edcfbbe)
          04112510483D

 27 27  0     0  0            999 V2000
   -2.5866   -1.7448    1.7046 C   0  0  0  0  0  0  0  0  0  0  0  0
   -3.4112   -0.7907    0.8494 C   0  0  0  0  0  0  0  0  0  0  0  0
   -2.7803   -0.3971   -0.4951 C   0  0  0  0  0  0  0  0  0  0  0  0
   -3.3989    0.4082   -0.9103 H   0  0  0  0  0  0  0  0  0  0  0  0
   -2.7511   -1.5270   -1.5157 C   0  0  0  0  0  0  0  0  0  0  0  0
   -1.4632    0.2423   -0.2903 N   0  0  0  0  0  0  0  0  0  0  0  0
   -0.2855   -0.5030   -0.2222 C   0  0  0  0  0  0  0  0  0  0  0  0
   -0.2618   -1.7159   -0.3032 O   0  0  0  0  0  0  0  0  0  0  0  0
    0.9142    0.2928   -0.0463 C   0  0  0  0  0  0  0  0  0  0  0  0
    0.9041    1.6408    0.0946 C   0  0  0  0  0  0  0  0  0  0  0  0
   -0.3127    2.2512    0.0589 N   0  0  0  0  0  0  0  0  0  0  0  0
   -1.5104    1.6080   -0.1169 C   0  0  0  0  0  0  0  0  0  0  0  0
   -2.5492    2.2470   -0.1224 O   0  0  0  0  0  0  0  0  0  0  0  0
    2.1116    2.4805    0.2928 C   0  0  0  0  0  0  0  0  0  0  0  0
    2.5371   -0.6931    0.0085 Br  0  0  0  0  0  0  0  0  0  0  0  0
   -2.3273   -2.6442    1.1537 H   0  0  0  0  0  0  0  0  0  0  0  0
   -1.6622   -1.2765    2.0383 H   0  0  0  0  0  0  0  0  0  0  0  0
   -3.1561   -2.0302    2.5852 H   0  0  0  0  0  0  0  0  0  0  0  0
   -4.3759   -1.2475    0.6267 H   0  0  0  0  0  0  0  0  0  0  0  0
   -3.5984    0.1266    1.4136 H   0  0  0  0  0  0  0  0  0  0  0  0
   -2.2480   -2.4088   -1.1349 H   0  0  0  0  0  0  0  0  0  0  0  0
   -3.7760   -1.7833   -1.7680 H   0  0  0  0  0  0  0  0  0  0  0  0
   -2.2409   -1.2045   -2.4205 H   0  0  0  0  0  0  0  0  0  0  0  0
   -0.3751    3.2576    0.1773 H   0  0  0  0  0  0  0  0  0  0  0  0
    2.8450    2.2666   -0.4828 H   0  0  0  0  0  0  0  0  0  0  0  0
    2.5789    2.2371    1.2461 H   0  0  0  0  0  0  0  0  0  0  0  0
    1.8617    3.5356    0.2755 H   0  0  0  0  0  0  0  0  0  0  0  0
  1  2  1  0  0  0  0
  2  3  1  0  0  0  0
  3  4  1  0  0  0  0
  3  5  1  0  0  0  0
  3  6  1  0  0  0  0
  6  7  1  0  0  0  0
  7  8  2  0  0  0  0
  7  9  1  0  0  0  0
  9 10  2  0  0  0  0
 10 11  1  0  0  0  0
  6 12  1  0  0  0  0
 11 12  1  0  0  0  0
 12 13  2  0  0  0  0
 10 14  1  0  0  0  0
  9 15  1  0  0  0  0
  1 16  1  0  0  0  0
  1 17  1  0  0  0  0
  1 18  1  0  0  0  0
  2 19  1  0  0  0  0
  2 20  1  0  0  0  0
  5 21  1  0  0  0  0
  5 22  1  0  0  0  0
  5 23  1  0  0  0  0
 11 24  1  0  0  0  0
 14 25  1  0  0  0  0
 14 26  1  0  0  0  0
 14 27  1  0  0  0  0
M  END
