 xtb: 6.7.1 (edcfbbe)
          04112510523D

 12 11  0     0  0            999 V2000
    0.2161    0.4933   -0.7166 C   0  0  0  0  0  0  0  0  0  0  0  0
    0.5373    1.1724   -1.5160 H   0  0  0  0  0  0  0  0  0  0  0  0
    1.4148    0.2888    0.2541 C   0  0  0  0  0  0  0  0  0  0  0  0
    2.0551   -0.8658    0.0797 F   0  0  0  0  0  0  0  0  0  0  0  0
    1.0546    0.3552    1.5356 F   0  0  0  0  0  0  0  0  0  0  0  0
    2.3226    1.2584    0.0681 F   0  0  0  0  0  0  0  0  0  0  0  0
   -0.8344    1.1480   -0.0618 O   0  0  0  0  0  0  0  0  0  0  0  0
   -1.8164    0.4754    0.5798 C   0  0  0  0  0  0  0  0  0  0  0  0
   -1.3725   -0.5614    1.3234 F   0  0  0  0  0  0  0  0  0  0  0  0
   -2.6991   -0.0773   -0.2953 F   0  0  0  0  0  0  0  0  0  0  0  0
   -0.2379   -1.0696   -1.4564 Cl  0  0  0  0  0  0  0  0  0  0  0  0
   -2.3603    1.1837    1.2195 H   0  0  0  0  0  0  0  0  0  0  0  0
  1  2  1  0  0  0  0
  1  3  1  0  0  0  0
  3  4  1  0  0  0  0
  3  5  1  0  0  0  0
  3  6  1  0  0  0  0
  1  7  1  0  0  0  0
  7  8  1  0  0  0  0
  8  9  1  0  0  0  0
  8 10  1  0  0  0  0
  1 11  1  0  0  0  0
  8 12  1  0  0  0  0
M  END
