 xtb: 6.7.1 (edcfbbe)
          04112512153D

 21 20  0     0  0            999 V2000
    2.2217   -1.1554    0.5211 C   0  0  0  0  0  0  0  0  0  0  0  0
    1.5159   -0.2586   -0.4900 C   0  0  0  0  0  0  0  0  0  0  0  0
    0.3020    0.4911    0.0952 C   0  0  0  0  0  0  0  0  0  0  0  0
    0.3820    0.5028    1.1940 H   0  0  0  0  0  0  0  0  0  0  0  0
   -1.0503   -0.1399   -0.2843 C   0  0  0  0  0  0  0  0  0  0  0  0
   -1.1485   -1.6041    0.1324 C   0  0  0  0  0  0  0  0  0  0  0  0
   -2.1903    0.6553    0.3526 C   0  0  0  0  0  0  0  0  0  0  0  0
    0.2649    1.8315   -0.3785 O   0  0  0  0  0  0  0  0  0  0  0  0
    3.0733   -1.6434    0.0534 H   0  0  0  0  0  0  0  0  0  0  0  0
    1.5526   -1.9218    0.9003 H   0  0  0  0  0  0  0  0  0  0  0  0
    2.5831   -0.5701    1.3637 H   0  0  0  0  0  0  0  0  0  0  0  0
    2.2280    0.4857   -0.8546 H   0  0  0  0  0  0  0  0  0  0  0  0
    1.2009   -0.8431   -1.3556 H   0  0  0  0  0  0  0  0  0  0  0  0
   -1.1422   -0.0632   -1.3733 H   0  0  0  0  0  0  0  0  0  0  0  0
   -0.4180   -2.2182   -0.3853 H   0  0  0  0  0  0  0  0  0  0  0  0
   -0.9953   -1.7016    1.2050 H   0  0  0  0  0  0  0  0  0  0  0  0
   -2.1390   -1.9831   -0.1068 H   0  0  0  0  0  0  0  0  0  0  0  0
   -2.1442    0.5768    1.4369 H   0  0  0  0  0  0  0  0  0  0  0  0
   -3.1505    0.2724    0.0167 H   0  0  0  0  0  0  0  0  0  0  0  0
   -2.1150    1.7033    0.0758 H   0  0  0  0  0  0  0  0  0  0  0  0
    1.0453    2.3024   -0.0587 H   0  0  0  0  0  0  0  0  0  0  0  0
  1  2  1  0  0  0  0
  2  3  1  0  0  0  0
  3  4  1  0  0  0  0
  3  5  1  0  0  0  0
  5  6  1  0  0  0  0
  5  7  1  0  0  0  0
  3  8  1  0  0  0  0
  1  9  1  0  0  0  0
  1 10  1  0  0  0  0
  1 11  1  0  0  0  0
  2 12  1  0  0  0  0
  2 13  1  0  0  0  0
  5 14  1  0  0  0  0
  6 15  1  0  0  0  0
  6 16  1  0  0  0  0
  6 17  1  0  0  0  0
  7 18  1  0  0  0  0
  7 19  1  0  0  0  0
  7 20  1  0  0  0  0
  8 21  1  0  0  0  0
M  END
