 xtb: 6.7.1 (edcfbbe)
          04112512223D

 23 22  0     0  0            999 V2000
   -1.9188    1.2316    0.2243 C   0  0  0  0  0  0  0  0  0  0  0  0
   -1.0842   -0.0466    0.1528 C   0  0  0  0  0  0  0  0  0  0  0  0
   -1.9859   -1.2419   -0.1531 C   0  0  0  0  0  0  0  0  0  0  0  0
    0.0376    0.0816   -0.8967 C   0  0  0  0  0  0  0  0  0  0  0  0
    1.4697    0.0543   -0.3413 C   0  0  0  0  0  0  0  0  0  0  0  0
    1.7340    1.2118    0.6195 C   0  0  0  0  0  0  0  0  0  0  0  0
    1.7983   -1.2846    0.3168 C   0  0  0  0  0  0  0  0  0  0  0  0
   -2.6853    1.1451    0.9917 H   0  0  0  0  0  0  0  0  0  0  0  0
   -1.2913    2.0870    0.4622 H   0  0  0  0  0  0  0  0  0  0  0  0
   -2.4099    1.4171   -0.7291 H   0  0  0  0  0  0  0  0  0  0  0  0
   -0.6406   -0.2104    1.1389 H   0  0  0  0  0  0  0  0  0  0  0  0
   -1.4089   -2.1636   -0.1634 H   0  0  0  0  0  0  0  0  0  0  0  0
   -2.7658   -1.3347    0.5999 H   0  0  0  0  0  0  0  0  0  0  0  0
   -2.4615   -1.1200   -1.1243 H   0  0  0  0  0  0  0  0  0  0  0  0
   -0.0930    1.0152   -1.4480 H   0  0  0  0  0  0  0  0  0  0  0  0
   -0.0538   -0.7307   -1.6208 H   0  0  0  0  0  0  0  0  0  0  0  0
    2.1416    0.1751   -1.2002 H   0  0  0  0  0  0  0  0  0  0  0  0
    2.7765    1.2123    0.9300 H   0  0  0  0  0  0  0  0  0  0  0  0
    1.5201    2.1629    0.1370 H   0  0  0  0  0  0  0  0  0  0  0  0
    1.1159    1.1305    1.5100 H   0  0  0  0  0  0  0  0  0  0  0  0
    1.6347   -2.1018   -0.3821 H   0  0  0  0  0  0  0  0  0  0  0  0
    2.8396   -1.3049    0.6302 H   0  0  0  0  0  0  0  0  0  0  0  0
    1.1780   -1.4538    1.1933 H   0  0  0  0  0  0  0  0  0  0  0  0
  1  2  1  0  0  0  0
  2  3  1  0  0  0  0
  2  4  1  0  0  0  0
  4  5  1  0  0  0  0
  5  6  1  0  0  0  0
  5  7  1  0  0  0  0
  1  8  1  0  0  0  0
  1  9  1  0  0  0  0
  1 10  1  0  0  0  0
  2 11  1  0  0  0  0
  3 12  1  0  0  0  0
  3 13  1  0  0  0  0
  3 14  1  0  0  0  0
  4 15  1  0  0  0  0
  4 16  1  0  0  0  0
  5 17  1  0  0  0  0
  6 18  1  0  0  0  0
  6 19  1  0  0  0  0
  6 20  1  0  0  0  0
  7 21  1  0  0  0  0
  7 22  1  0  0  0  0
  7 23  1  0  0  0  0
M  END
