 xtb: 6.7.1 (edcfbbe)
          04112512223D

 16 15  0     0  0            999 V2000
   -1.7691    0.7932   -0.3673 C   0  0  0  0  0  0  0  0  0  0  0  0
   -1.1628   -0.2770    0.5448 C   0  0  0  0  0  0  0  0  0  0  0  0
   -0.0241   -1.0012    0.0031 N   0  0  0  0  0  0  0  0  0  0  0  0
    1.2971   -0.4717    0.2777 C   0  0  0  0  0  0  0  0  0  0  0  0
    1.6658    0.8603   -0.3870 C   0  0  0  0  0  0  0  0  0  0  0  0
   -2.0776    0.3477   -1.3111 H   0  0  0  0  0  0  0  0  0  0  0  0
   -2.6442    1.2280    0.1090 H   0  0  0  0  0  0  0  0  0  0  0  0
   -1.0603    1.5893   -0.5774 H   0  0  0  0  0  0  0  0  0  0  0  0
   -1.9389   -1.0215    0.7601 H   0  0  0  0  0  0  0  0  0  0  0  0
   -0.8588    0.1689    1.4948 H   0  0  0  0  0  0  0  0  0  0  0  0
   -0.1466   -1.1360   -0.9949 H   0  0  0  0  0  0  0  0  0  0  0  0
    1.3898   -0.3730    1.3632 H   0  0  0  0  0  0  0  0  0  0  0  0
    2.0083   -1.2364   -0.0495 H   0  0  0  0  0  0  0  0  0  0  0  0
    2.7202    1.0689   -0.2252 H   0  0  0  0  0  0  0  0  0  0  0  0
    1.4832    0.8135   -1.4590 H   0  0  0  0  0  0  0  0  0  0  0  0
    1.0890    1.6804    0.0332 H   0  0  0  0  0  0  0  0  0  0  0  0
  1  2  1  0  0  0  0
  2  3  1  0  0  0  0
  3  4  1  0  0  0  0
  4  5  1  0  0  0  0
  1  6  1  0  0  0  0
  1  7  1  0  0  0  0
  1  8  1  0  0  0  0
  2  9  1  0  0  0  0
  2 10  1  0  0  0  0
  3 11  1  0  0  0  0
  4 12  1  0  0  0  0
  4 13  1  0  0  0  0
  5 14  1  0  0  0  0
  5 15  1  0  0  0  0
  5 16  1  0  0  0  0
M  END
