 xtb: 6.7.1 (edcfbbe)
          04112512193D

 17 16  0     0  0            999 V2000
   -2.8048    0.2547   -0.3957 C   0  0  0  0  0  0  0  0  0  0  0  0
   -1.6743    0.4839    0.6093 C   0  0  0  0  0  0  0  0  0  0  0  0
   -0.4114   -0.1809    0.1236 C   0  0  0  0  0  0  0  0  0  0  0  0
   -0.2723   -1.3779   -0.0196 O   0  0  0  0  0  0  0  0  0  0  0  0
    0.5313    0.7089   -0.1591 O   0  0  0  0  0  0  0  0  0  0  0  0
    1.8022    0.2374   -0.6387 C   0  0  0  0  0  0  0  0  0  0  0  0
    2.7388   -0.0800    0.5169 C   0  0  0  0  0  0  0  0  0  0  0  0
   -2.9367   -0.8107   -0.5686 H   0  0  0  0  0  0  0  0  0  0  0  0
   -3.7316    0.6681   -0.0101 H   0  0  0  0  0  0  0  0  0  0  0  0
   -2.5742    0.7344   -1.3437 H   0  0  0  0  0  0  0  0  0  0  0  0
   -1.9434    0.0333    1.5654 H   0  0  0  0  0  0  0  0  0  0  0  0
   -1.4818    1.5471    0.7431 H   0  0  0  0  0  0  0  0  0  0  0  0
    1.6343   -0.6515   -1.2544 H   0  0  0  0  0  0  0  0  0  0  0  0
    2.1869    1.0552   -1.2487 H   0  0  0  0  0  0  0  0  0  0  0  0
    2.8517    0.7910    1.1568 H   0  0  0  0  0  0  0  0  0  0  0  0
    2.3389   -0.9028    1.1053 H   0  0  0  0  0  0  0  0  0  0  0  0
    3.7093   -0.3661    0.1249 H   0  0  0  0  0  0  0  0  0  0  0  0
  1  2  1  0  0  0  0
  2  3  1  0  0  0  0
  3  4  2  0  0  0  0
  3  5  1  0  0  0  0
  5  6  1  0  0  0  0
  6  7  1  0  0  0  0
  1  8  1  0  0  0  0
  1  9  1  0  0  0  0
  1 10  1  0  0  0  0
  2 11  1  0  0  0  0
  2 12  1  0  0  0  0
  6 13  1  0  0  0  0
  6 14  1  0  0  0  0
  7 15  1  0  0  0  0
  7 16  1  0  0  0  0
  7 17  1  0  0  0  0
M  END
