 xtb: 6.7.1 (edcfbbe)
          04112511053D

 19 19  0     0  0            999 V2000
   -2.8311   -0.8010    0.8478 C   0  0  0  0  0  0  0  0  0  0  0  0
   -2.4030   -0.3197   -0.5349 C   0  0  0  0  0  0  0  0  0  0  0  0
   -1.3896    0.6739   -0.4804 O   0  0  0  0  0  0  0  0  0  0  0  0
   -0.0968    0.3197   -0.2198 C   0  0  0  0  0  0  0  0  0  0  0  0
    0.7971    1.3858   -0.0991 C   0  0  0  0  0  0  0  0  0  0  0  0
    2.1343    1.1538    0.1460 C   0  0  0  0  0  0  0  0  0  0  0  0
    2.6064   -0.1435    0.2752 C   0  0  0  0  0  0  0  0  0  0  0  0
    1.7243   -1.2006    0.1537 C   0  0  0  0  0  0  0  0  0  0  0  0
    0.3783   -0.9806   -0.0913 C   0  0  0  0  0  0  0  0  0  0  0  0
   -3.6463   -1.5109    0.7472 H   0  0  0  0  0  0  0  0  0  0  0  0
   -2.0044   -1.2796    1.3667 H   0  0  0  0  0  0  0  0  0  0  0  0
   -3.1662    0.0445    1.4428 H   0  0  0  0  0  0  0  0  0  0  0  0
   -3.2367    0.1851   -1.0292 H   0  0  0  0  0  0  0  0  0  0  0  0
   -2.0820   -1.1577   -1.1638 H   0  0  0  0  0  0  0  0  0  0  0  0
    0.4109    2.3875   -0.2048 H   0  0  0  0  0  0  0  0  0  0  0  0
    2.8117    1.9892    0.2369 H   0  0  0  0  0  0  0  0  0  0  0  0
    3.6519   -0.3259    0.4687 H   0  0  0  0  0  0  0  0  0  0  0  0
    2.0799   -2.2154    0.2513 H   0  0  0  0  0  0  0  0  0  0  0  0
   -0.2811   -1.8289   -0.1819 H   0  0  0  0  0  0  0  0  0  0  0  0
  1  2  1  0  0  0  0
  2  3  1  0  0  0  0
  3  4  1  0  0  0  0
  4  5  4  0  0  0  0
  5  6  4  0  0  0  0
  6  7  4  0  0  0  0
  7  8  4  0  0  0  0
  4  9  4  0  0  0  0
  8  9  4  0  0  0  0
  1 10  1  0  0  0  0
  1 11  1  0  0  0  0
  1 12  1  0  0  0  0
  2 13  1  0  0  0  0
  2 14  1  0  0  0  0
  5 15  1  0  0  0  0
  6 16  1  0  0  0  0
  7 17  1  0  0  0  0
  8 18  1  0  0  0  0
  9 19  1  0  0  0  0
M  END
