 xtb: 6.7.1 (edcfbbe)
          04112511213D

 14 13  0     0  0            999 V2000
   -1.8498    0.9708    0.0048 C   0  0  0  0  0  0  0  0  0  0  0  0
   -1.8128   -0.5247    0.2961 C   0  0  0  0  0  0  0  0  0  0  0  0
   -0.5745   -1.2328   -0.2580 C   0  0  0  0  0  0  0  0  0  0  0  0
    0.7278   -0.8667    0.4379 C   0  0  0  0  0  0  0  0  0  0  0  0
    1.4525    0.6545   -0.2010 Cl  0  0  0  0  0  0  0  0  0  0  0  0
   -2.7894    1.3968    0.3486 H   0  0  0  0  0  0  0  0  0  0  0  0
   -1.0383    1.4891    0.5076 H   0  0  0  0  0  0  0  0  0  0  0  0
   -1.7606    1.1537   -1.0639 H   0  0  0  0  0  0  0  0  0  0  0  0
   -2.6939   -0.9904   -0.1498 H   0  0  0  0  0  0  0  0  0  0  0  0
   -1.8640   -0.6850    1.3750 H   0  0  0  0  0  0  0  0  0  0  0  0
   -0.7097   -2.3086   -0.1279 H   0  0  0  0  0  0  0  0  0  0  0  0
   -0.4844   -1.0355   -1.3273 H   0  0  0  0  0  0  0  0  0  0  0  0
    1.4868   -1.6292    0.2736 H   0  0  0  0  0  0  0  0  0  0  0  0
    0.5820   -0.7083    1.5049 H   0  0  0  0  0  0  0  0  0  0  0  0
  1  2  1  0  0  0  0
  2  3  1  0  0  0  0
  3  4  1  0  0  0  0
  4  5  1  0  0  0  0
  1  6  1  0  0  0  0
  1  7  1  0  0  0  0
  1  8  1  0  0  0  0
  2  9  1  0  0  0  0
  2 10  1  0  0  0  0
  3 11  1  0  0  0  0
  3 12  1  0  0  0  0
  4 13  1  0  0  0  0
  4 14  1  0  0  0  0
M  END
