 xtb: 6.7.1 (edcfbbe)
          04112511193D

 14 13  0     0  0            999 V2000
   -1.2010    0.1565   -0.4924 C   0  0  0  0  0  0  0  0  0  0  0  0
   -0.0472    0.4828    0.4798 C   0  0  0  0  0  0  0  0  0  0  0  0
    0.9928   -0.6481    0.5748 C   0  0  0  0  0  0  0  0  0  0  0  0
    1.7627   -0.8410   -0.5839 O   0  0  0  0  0  0  0  0  0  0  0  0
    0.6337    1.6552    0.0904 O   0  0  0  0  0  0  0  0  0  0  0  0
   -2.1195   -0.7673    0.0399 O   0  0  0  0  0  0  0  0  0  0  0  0
   -0.8073   -0.1866   -1.4573 H   0  0  0  0  0  0  0  0  0  0  0  0
   -1.7789    1.0668   -0.6725 H   0  0  0  0  0  0  0  0  0  0  0  0
   -0.4836    0.6018    1.4840 H   0  0  0  0  0  0  0  0  0  0  0  0
    0.4818   -1.5784    0.8606 H   0  0  0  0  0  0  0  0  0  0  0  0
    1.7119   -0.3918    1.3552 H   0  0  0  0  0  0  0  0  0  0  0  0
    1.1847   -0.9342   -1.3536 H   0  0  0  0  0  0  0  0  0  0  0  0
    0.0413    2.4170    0.1491 H   0  0  0  0  0  0  0  0  0  0  0  0
   -1.7014   -1.6339    0.1353 H   0  0  0  0  0  0  0  0  0  0  0  0
  1  2  1  0  0  0  0
  2  3  1  0  0  0  0
  3  4  1  0  0  0  0
  2  5  1  0  0  0  0
  1  6  1  0  0  0  0
  1  7  1  0  0  0  0
  1  8  1  0  0  0  0
  2  9  1  0  0  0  0
  3 10  1  0  0  0  0
  3 11  1  0  0  0  0
  4 12  1  0  0  0  0
  5 13  1  0  0  0  0
  6 14  1  0  0  0  0
M  END
