 xtb: 6.7.1 (edcfbbe)
          04112511143D

 17 16  0     0  0            999 V2000
    2.5278    0.7446    0.3221 C   0  0  0  0  0  0  0  0  0  0  0  0
    1.2626   -0.1051    0.2451 C   0  0  0  0  0  0  0  0  0  0  0  0
    1.4020   -1.1817   -0.8290 C   0  0  0  0  0  0  0  0  0  0  0  0
    0.0485    0.7826   -0.0465 C   0  0  0  0  0  0  0  0  0  0  0  0
   -1.2601    0.0636    0.1285 C   0  0  0  0  0  0  0  0  0  0  0  0
   -1.4514   -0.8867    0.8572 O   0  0  0  0  0  0  0  0  0  0  0  0
   -2.2280    0.6026   -0.6004 O   0  0  0  0  0  0  0  0  0  0  0  0
    2.4480    1.4865    1.1126 H   0  0  0  0  0  0  0  0  0  0  0  0
    2.6947    1.2589   -0.6214 H   0  0  0  0  0  0  0  0  0  0  0  0
    3.3901    0.1163    0.5280 H   0  0  0  0  0  0  0  0  0  0  0  0
    1.0962   -0.5963    1.2097 H   0  0  0  0  0  0  0  0  0  0  0  0
    2.2569   -1.8187   -0.6177 H   0  0  0  0  0  0  0  0  0  0  0  0
    0.5114   -1.8057   -0.8576 H   0  0  0  0  0  0  0  0  0  0  0  0
    1.5427   -0.7277   -1.8075 H   0  0  0  0  0  0  0  0  0  0  0  0
    0.0866    1.1879   -1.0582 H   0  0  0  0  0  0  0  0  0  0  0  0
    0.0315    1.6256    0.6493 H   0  0  0  0  0  0  0  0  0  0  0  0
   -3.0896    0.1605   -0.4723 H   0  0  0  0  0  0  0  0  0  0  0  0
  1  2  1  0  0  0  0
  2  3  1  0  0  0  0
  2  4  1  0  0  0  0
  4  5  1  0  0  0  0
  5  6  2  0  0  0  0
  5  7  1  0  0  0  0
  1  8  1  0  0  0  0
  1  9  1  0  0  0  0
  1 10  1  0  0  0  0
  2 11  1  0  0  0  0
  3 12  1  0  0  0  0
  3 13  1  0  0  0  0
  3 14  1  0  0  0  0
  4 15  1  0  0  0  0
  4 16  1  0  0  0  0
  7 17  1  0  0  0  0
M  END
