 xtb: 6.7.1 (edcfbbe)
          04112511583D

 18 17  0     0  0            999 V2000
   -1.8916    1.2248    0.2425 C   0  0  0  0  0  0  0  0  0  0  0  0
   -1.1961    0.0855   -0.4895 C   0  0  0  0  0  0  0  0  0  0  0  0
   -0.1295   -0.6196    0.3537 C   0  0  0  0  0  0  0  0  0  0  0  0
    1.0429    0.2830    0.7674 C   0  0  0  0  0  0  0  0  0  0  0  0
    1.7709    0.9092   -0.4174 C   0  0  0  0  0  0  0  0  0  0  0  0
    0.3172   -1.7292   -0.4118 O   0  0  0  0  0  0  0  0  0  0  0  0
   -1.2023    2.0400    0.4439 H   0  0  0  0  0  0  0  0  0  0  0  0
   -2.7061    1.6101   -0.3650 H   0  0  0  0  0  0  0  0  0  0  0  0
   -2.3018    0.8763    1.1877 H   0  0  0  0  0  0  0  0  0  0  0  0
   -1.9290   -0.6731   -0.7727 H   0  0  0  0  0  0  0  0  0  0  0  0
   -0.7344    0.4464   -1.4085 H   0  0  0  0  0  0  0  0  0  0  0  0
   -0.6119   -0.9924    1.2747 H   0  0  0  0  0  0  0  0  0  0  0  0
    0.6683    1.0598    1.4339 H   0  0  0  0  0  0  0  0  0  0  0  0
    1.7484   -0.3259    1.3393 H   0  0  0  0  0  0  0  0  0  0  0  0
    1.1674    1.6846   -0.8808 H   0  0  0  0  0  0  0  0  0  0  0  0
    2.7065    1.3553   -0.0896 H   0  0  0  0  0  0  0  0  0  0  0  0
    1.9893    0.1494   -1.1645 H   0  0  0  0  0  0  0  0  0  0  0  0
    0.9785   -2.2187    0.0956 H   0  0  0  0  0  0  0  0  0  0  0  0
  1  2  1  0  0  0  0
  2  3  1  0  0  0  0
  3  4  1  0  0  0  0
  4  5  1  0  0  0  0
  3  6  1  0  0  0  0
  1  7  1  0  0  0  0
  1  8  1  0  0  0  0
  1  9  1  0  0  0  0
  2 10  1  0  0  0  0
  2 11  1  0  0  0  0
  3 12  1  0  0  0  0
  4 13  1  0  0  0  0
  4 14  1  0  0  0  0
  5 15  1  0  0  0  0
  5 16  1  0  0  0  0
  5 17  1  0  0  0  0
  6 18  1  0  0  0  0
M  END
