 xtb: 6.7.1 (edcfbbe)
          04112512243D

 23 22  0     0  0            999 V2000
    2.6884    0.4094    0.4783 C   0  0  0  0  0  0  0  0  0  0  0  0
    1.2503    0.0712    0.8626 C   0  0  0  0  0  0  0  0  0  0  0  0
    0.2712    0.0721   -0.3212 C   0  0  0  0  0  0  0  0  0  0  0  0
    0.2800    1.0740   -0.7677 H   0  0  0  0  0  0  0  0  0  0  0  0
    0.7237   -0.9329   -1.3816 C   0  0  0  0  0  0  0  0  0  0  0  0
   -1.1715   -0.2305    0.1404 C   0  0  0  0  0  0  0  0  0  0  0  0
   -1.6286    0.6978    1.2685 C   0  0  0  0  0  0  0  0  0  0  0  0
   -2.1653   -0.1064   -1.0172 C   0  0  0  0  0  0  0  0  0  0  0  0
    3.1503   -0.3892   -0.0953 H   0  0  0  0  0  0  0  0  0  0  0  0
    2.7190    1.3236   -0.1107 H   0  0  0  0  0  0  0  0  0  0  0  0
    3.2832    0.5619    1.3761 H   0  0  0  0  0  0  0  0  0  0  0  0
    0.9236    0.8123    1.5916 H   0  0  0  0  0  0  0  0  0  0  0  0
    1.2253   -0.9085    1.3457 H   0  0  0  0  0  0  0  0  0  0  0  0
    1.7278   -0.7011   -1.7239 H   0  0  0  0  0  0  0  0  0  0  0  0
    0.7212   -1.9407   -0.9705 H   0  0  0  0  0  0  0  0  0  0  0  0
    0.0716   -0.9107   -2.2492 H   0  0  0  0  0  0  0  0  0  0  0  0
   -1.2002   -1.2619    0.5113 H   0  0  0  0  0  0  0  0  0  0  0  0
   -1.1021    0.4933    2.1961 H   0  0  0  0  0  0  0  0  0  0  0  0
   -2.6912    0.5575    1.4547 H   0  0  0  0  0  0  0  0  0  0  0  0
   -1.4659    1.7379    0.9936 H   0  0  0  0  0  0  0  0  0  0  0  0
   -3.1805   -0.2465   -0.6527 H   0  0  0  0  0  0  0  0  0  0  0  0
   -1.9854   -0.8520   -1.7856 H   0  0  0  0  0  0  0  0  0  0  0  0
   -2.0977    0.8817   -1.4676 H   0  0  0  0  0  0  0  0  0  0  0  0
  1  2  1  0  0  0  0
  2  3  1  0  0  0  0
  3  4  1  0  0  0  0
  3  5  1  0  0  0  0
  3  6  1  0  0  0  0
  6  7  1  0  0  0  0
  6  8  1  0  0  0  0
  1  9  1  0  0  0  0
  1 10  1  0  0  0  0
  1 11  1  0  0  0  0
  2 12  1  0  0  0  0
  2 13  1  0  0  0  0
  5 14  1  0  0  0  0
  5 15  1  0  0  0  0
  5 16  1  0  0  0  0
  6 17  1  0  0  0  0
  7 18  1  0  0  0  0
  7 19  1  0  0  0  0
  7 20  1  0  0  0  0
  8 21  1  0  0  0  0
  8 22  1  0  0  0  0
  8 23  1  0  0  0  0
M  END
