 xtb: 6.7.1 (edcfbbe)
          04112512153D

 21 20  0     0  0            999 V2000
    2.1501    0.6495   -0.8771 C   0  0  0  0  0  0  0  0  0  0  0  0
    1.5728   -0.6321   -0.2844 C   0  0  0  0  0  0  0  0  0  0  0  0
    0.2999   -0.4361    0.5648 C   0  0  0  0  0  0  0  0  0  0  0  0
    0.2844   -1.2548    1.3070 H   0  0  0  0  0  0  0  0  0  0  0  0
   -1.0173   -0.5611   -0.2379 C   0  0  0  0  0  0  0  0  0  0  0  0
   -2.2191   -0.5639    0.7109 C   0  0  0  0  0  0  0  0  0  0  0  0
   -1.1845    0.5412   -1.2807 C   0  0  0  0  0  0  0  0  0  0  0  0
    0.4057    0.7965    1.2511 O   0  0  0  0  0  0  0  0  0  0  0  0
    1.4822    1.0932   -1.6073 H   0  0  0  0  0  0  0  0  0  0  0  0
    3.0976    0.4287   -1.3628 H   0  0  0  0  0  0  0  0  0  0  0  0
    2.3217    1.3746   -0.0866 H   0  0  0  0  0  0  0  0  0  0  0  0
    1.3535   -1.3486   -1.0772 H   0  0  0  0  0  0  0  0  0  0  0  0
    2.3366   -1.0718    0.3604 H   0  0  0  0  0  0  0  0  0  0  0  0
   -0.9815   -1.5323   -0.7430 H   0  0  0  0  0  0  0  0  0  0  0  0
   -3.1214   -0.8280    0.1650 H   0  0  0  0  0  0  0  0  0  0  0  0
   -2.0815   -1.2887    1.5110 H   0  0  0  0  0  0  0  0  0  0  0  0
   -2.3699    0.4216    1.1460 H   0  0  0  0  0  0  0  0  0  0  0  0
   -2.2045    0.5455   -1.6581 H   0  0  0  0  0  0  0  0  0  0  0  0
   -0.5142    0.3880   -2.1211 H   0  0  0  0  0  0  0  0  0  0  0  0
   -0.9738    1.5105   -0.8345 H   0  0  0  0  0  0  0  0  0  0  0  0
   -0.3260    0.8654    1.8774 H   0  0  0  0  0  0  0  0  0  0  0  0
  1  2  1  0  0  0  0
  2  3  1  0  0  0  0
  3  4  1  0  0  0  0
  3  5  1  0  0  0  0
  5  6  1  0  0  0  0
  5  7  1  0  0  0  0
  3  8  1  0  0  0  0
  1  9  1  0  0  0  0
  1 10  1  0  0  0  0
  1 11  1  0  0  0  0
  2 12  1  0  0  0  0
  2 13  1  0  0  0  0
  5 14  1  0  0  0  0
  6 15  1  0  0  0  0
  6 16  1  0  0  0  0
  6 17  1  0  0  0  0
  7 18  1  0  0  0  0
  7 19  1  0  0  0  0
  7 20  1  0  0  0  0
  8 21  1  0  0  0  0
M  END
