 xtb: 6.7.1 (edcfbbe)
          04112511583D

 20 19  0     0  0            999 V2000
    2.2046    0.8053    0.4397 C   0  0  0  0  0  0  0  0  0  0  0  0
    1.4154   -0.4467    0.0692 C   0  0  0  0  0  0  0  0  0  0  0  0
    0.3167   -0.1823   -0.9709 C   0  0  0  0  0  0  0  0  0  0  0  0
   -1.1079   -0.0144   -0.4184 C   0  0  0  0  0  0  0  0  0  0  0  0
   -1.2146    1.1150    0.6032 C   0  0  0  0  0  0  0  0  0  0  0  0
   -1.6439   -1.3187    0.1706 C   0  0  0  0  0  0  0  0  0  0  0  0
    2.6922    1.2193   -0.4405 H   0  0  0  0  0  0  0  0  0  0  0  0
    1.5570    1.5682    0.8618 H   0  0  0  0  0  0  0  0  0  0  0  0
    2.9722    0.5640    1.1720 H   0  0  0  0  0  0  0  0  0  0  0  0
    2.1148   -1.1829   -0.3329 H   0  0  0  0  0  0  0  0  0  0  0  0
    0.9816   -0.8787    0.9712 H   0  0  0  0  0  0  0  0  0  0  0  0
    0.5777    0.7160   -1.5349 H   0  0  0  0  0  0  0  0  0  0  0  0
    0.2917   -1.0111   -1.6822 H   0  0  0  0  0  0  0  0  0  0  0  0
   -1.7434    0.2469   -1.2740 H   0  0  0  0  0  0  0  0  0  0  0  0
   -2.2543    1.2658    0.8861 H   0  0  0  0  0  0  0  0  0  0  0  0
   -0.8363    2.0454    0.1862 H   0  0  0  0  0  0  0  0  0  0  0  0
   -0.6516    0.8781    1.5022 H   0  0  0  0  0  0  0  0  0  0  0  0
   -2.6833   -1.1973    0.4670 H   0  0  0  0  0  0  0  0  0  0  0  0
   -1.5869   -2.1208   -0.5616 H   0  0  0  0  0  0  0  0  0  0  0  0
   -1.0758   -1.6152    1.0488 H   0  0  0  0  0  0  0  0  0  0  0  0
  1  2  1  0  0  0  0
  2  3  1  0  0  0  0
  3  4  1  0  0  0  0
  4  5  1  0  0  0  0
  4  6  1  0  0  0  0
  1  7  1  0  0  0  0
  1  8  1  0  0  0  0
  1  9  1  0  0  0  0
  2 10  1  0  0  0  0
  2 11  1  0  0  0  0
  3 12  1  0  0  0  0
  3 13  1  0  0  0  0
  4 14  1  0  0  0  0
  5 15  1  0  0  0  0
  5 16  1  0  0  0  0
  5 17  1  0  0  0  0
  6 18  1  0  0  0  0
  6 19  1  0  0  0  0
  6 20  1  0  0  0  0
M  END
