 xtb: 6.7.1 (edcfbbe)
          04112511053D

 19 19  0     0  0            999 V2000
   -2.9185   -1.1193   -0.4191 C   0  0  0  0  0  0  0  0  0  0  0  0
   -2.3890    0.3069   -0.3053 C   0  0  0  0  0  0  0  0  0  0  0  0
   -1.3837    0.4916    0.6903 O   0  0  0  0  0  0  0  0  0  0  0  0
   -0.0714    0.2516    0.3221 C   0  0  0  0  0  0  0  0  0  0  0  0
    0.8033    1.3336    0.3082 C   0  0  0  0  0  0  0  0  0  0  0  0
    2.1374    1.1455   -0.0026 C   0  0  0  0  0  0  0  0  0  0  0  0
    2.6086   -0.1201   -0.3093 C   0  0  0  0  0  0  0  0  0  0  0  0
    1.7414   -1.1986   -0.2875 C   0  0  0  0  0  0  0  0  0  0  0  0
    0.4062   -1.0208    0.0310 C   0  0  0  0  0  0  0  0  0  0  0  0
   -3.8385   -1.1079   -0.9962 H   0  0  0  0  0  0  0  0  0  0  0  0
   -2.2071   -1.7692   -0.9204 H   0  0  0  0  0  0  0  0  0  0  0  0
   -3.1278   -1.5141    0.5718 H   0  0  0  0  0  0  0  0  0  0  0  0
   -3.1961    0.9702    0.0178 H   0  0  0  0  0  0  0  0  0  0  0  0
   -2.0128    0.6547   -1.2751 H   0  0  0  0  0  0  0  0  0  0  0  0
    0.4197    2.3130    0.5504 H   0  0  0  0  0  0  0  0  0  0  0  0
    2.8080    1.9912   -0.0102 H   0  0  0  0  0  0  0  0  0  0  0  0
    3.6483   -0.2661   -0.5581 H   0  0  0  0  0  0  0  0  0  0  0  0
    2.1048   -2.1896   -0.5135 H   0  0  0  0  0  0  0  0  0  0  0  0
   -0.2578   -1.8692    0.0712 H   0  0  0  0  0  0  0  0  0  0  0  0
  1  2  1  0  0  0  0
  2  3  1  0  0  0  0
  3  4  1  0  0  0  0
  4  5  4  0  0  0  0
  5  6  4  0  0  0  0
  6  7  4  0  0  0  0
  7  8  4  0  0  0  0
  4  9  4  0  0  0  0
  8  9  4  0  0  0  0
  1 10  1  0  0  0  0
  1 11  1  0  0  0  0
  1 12  1  0  0  0  0
  2 13  1  0  0  0  0
  2 14  1  0  0  0  0
  5 15  1  0  0  0  0
  6 16  1  0  0  0  0
  7 17  1  0  0  0  0
  8 18  1  0  0  0  0
  9 19  1  0  0  0  0
M  END
