 xtb: 6.7.1 (edcfbbe)
          04112511563D

 21 21  0     0  0            999 V2000
   -3.6124    1.0206   -0.3746 C   0  0  0  0  0  0  0  0  0  0  0  0
   -2.3426    1.4438    0.0997 O   0  0  0  0  0  0  0  0  0  0  0  0
   -1.2506    0.6258    0.0524 C   0  0  0  0  0  0  0  0  0  0  0  0
   -1.1868   -0.7640   -0.0027 C   0  0  0  0  0  0  0  0  0  0  0  0
    0.0407   -1.4010   -0.0365 C   0  0  0  0  0  0  0  0  0  0  0  0
    1.2290   -0.6893   -0.0032 C   0  0  0  0  0  0  0  0  0  0  0  0
    1.2216    0.7034    0.0645 C   0  0  0  0  0  0  0  0  0  0  0  0
   -0.0379    1.3333    0.0898 C   0  0  0  0  0  0  0  0  0  0  0  0
   -0.0495    2.6829    0.1557 O   0  0  0  0  0  0  0  0  0  0  0  0
    2.2468    1.5850    0.1160 O   0  0  0  0  0  0  0  0  0  0  0  0
    3.5980    1.2023   -0.0743 C   0  0  0  0  0  0  0  0  0  0  0  0
    2.6751   -1.6583   -0.0257 Cl  0  0  0  0  0  0  0  0  0  0  0  0
   -2.5850   -1.7993    0.0048 Cl  0  0  0  0  0  0  0  0  0  0  0  0
   -4.1834    1.9395   -0.4933 H   0  0  0  0  0  0  0  0  0  0  0  0
   -4.1115    0.3731    0.3470 H   0  0  0  0  0  0  0  0  0  0  0  0
   -3.5280    0.5116   -1.3351 H   0  0  0  0  0  0  0  0  0  0  0  0
    0.0751   -2.4771   -0.0786 H   0  0  0  0  0  0  0  0  0  0  0  0
   -0.9741    2.9906    0.1553 H   0  0  0  0  0  0  0  0  0  0  0  0
    4.1422    2.1445   -0.0972 H   0  0  0  0  0  0  0  0  0  0  0  0
    3.7370    0.6755   -1.0194 H   0  0  0  0  0  0  0  0  0  0  0  0
    3.9625    0.5906    0.7526 H   0  0  0  0  0  0  0  0  0  0  0  0
  1  2  1  0  0  0  0
  2  3  1  0  0  0  0
  3  4  4  0  0  0  0
  4  5  4  0  0  0  0
  5  6  4  0  0  0  0
  6  7  4  0  0  0  0
  3  8  4  0  0  0  0
  7  8  4  0  0  0  0
  8  9  1  0  0  0  0
  7 10  1  0  0  0  0
 10 11  1  0  0  0  0
  6 12  1  0  0  0  0
  4 13  1  0  0  0  0
  1 14  1  0  0  0  0
  1 15  1  0  0  0  0
  1 16  1  0  0  0  0
  5 17  1  0  0  0  0
  9 18  1  0  0  0  0
 11 19  1  0  0  0  0
 11 20  1  0  0  0  0
 11 21  1  0  0  0  0
M  END
