 xtb: 6.7.1 (edcfbbe)
          04112512143D

 21 20  0     0  0            999 V2000
    2.0991   -0.7014   -0.7600 C   0  0  0  0  0  0  0  0  0  0  0  0
    1.4658   -0.4964    0.6121 C   0  0  0  0  0  0  0  0  0  0  0  0
    0.1998    0.3746    0.5702 C   0  0  0  0  0  0  0  0  0  0  0  0
   -0.1998    0.4430    1.5975 H   0  0  0  0  0  0  0  0  0  0  0  0
   -0.9187   -0.1718   -0.3344 C   0  0  0  0  0  0  0  0  0  0  0  0
   -1.2943   -1.6081    0.0195 C   0  0  0  0  0  0  0  0  0  0  0  0
   -2.1485    0.7298   -0.2220 C   0  0  0  0  0  0  0  0  0  0  0  0
    0.5072    1.6809    0.1060 O   0  0  0  0  0  0  0  0  0  0  0  0
    2.1969    0.2539   -1.2705 H   0  0  0  0  0  0  0  0  0  0  0  0
    1.4926   -1.3588   -1.3767 H   0  0  0  0  0  0  0  0  0  0  0  0
    3.0864   -1.1443   -0.6556 H   0  0  0  0  0  0  0  0  0  0  0  0
    1.2241   -1.4565    1.0669 H   0  0  0  0  0  0  0  0  0  0  0  0
    2.1883    0.0008    1.2653 H   0  0  0  0  0  0  0  0  0  0  0  0
   -0.5582   -0.1280   -1.3659 H   0  0  0  0  0  0  0  0  0  0  0  0
   -0.4858   -2.2997   -0.1976 H   0  0  0  0  0  0  0  0  0  0  0  0
   -1.5446   -1.6835    1.0756 H   0  0  0  0  0  0  0  0  0  0  0  0
   -2.1626   -1.9103   -0.5606 H   0  0  0  0  0  0  0  0  0  0  0  0
   -2.9137    0.4144   -0.9266 H   0  0  0  0  0  0  0  0  0  0  0  0
   -1.8764    1.7593   -0.4383 H   0  0  0  0  0  0  0  0  0  0  0  0
   -2.5608    0.6824    0.7840 H   0  0  0  0  0  0  0  0  0  0  0  0
    1.1752    2.0703    0.6853 H   0  0  0  0  0  0  0  0  0  0  0  0
  1  2  1  0  0  0  0
  2  3  1  0  0  0  0
  3  4  1  0  0  0  0
  3  5  1  0  0  0  0
  5  6  1  0  0  0  0
  5  7  1  0  0  0  0
  3  8  1  0  0  0  0
  1  9  1  0  0  0  0
  1 10  1  0  0  0  0
  1 11  1  0  0  0  0
  2 12  1  0  0  0  0
  2 13  1  0  0  0  0
  5 14  1  0  0  0  0
  6 15  1  0  0  0  0
  6 16  1  0  0  0  0
  6 17  1  0  0  0  0
  7 18  1  0  0  0  0
  7 19  1  0  0  0  0
  7 20  1  0  0  0  0
  8 21  1  0  0  0  0
M  END
