 xtb: 6.7.1 (edcfbbe)
          04112512153D

 21 20  0     0  0            999 V2000
    1.7758   -0.8598    1.1899 C   0  0  0  0  0  0  0  0  0  0  0  0
    1.4803   -0.2639   -0.1806 C   0  0  0  0  0  0  0  0  0  0  0  0
    0.2973    0.7143   -0.2176 C   0  0  0  0  0  0  0  0  0  0  0  0
    0.4568    1.4829    0.5486 H   0  0  0  0  0  0  0  0  0  0  0  0
   -1.1156    0.1166   -0.0107 C   0  0  0  0  0  0  0  0  0  0  0  0
   -1.3074   -1.2485   -0.6700 C   0  0  0  0  0  0  0  0  0  0  0  0
   -1.5116    0.0567    1.4638 C   0  0  0  0  0  0  0  0  0  0  0  0
    0.3370    1.4479   -1.4371 O   0  0  0  0  0  0  0  0  0  0  0  0
    1.0129   -1.5739    1.4855 H   0  0  0  0  0  0  0  0  0  0  0  0
    1.8306   -0.0776    1.9430 H   0  0  0  0  0  0  0  0  0  0  0  0
    2.7305   -1.3799    1.1646 H   0  0  0  0  0  0  0  0  0  0  0  0
    2.3531    0.3062   -0.5106 H   0  0  0  0  0  0  0  0  0  0  0  0
    1.3191   -1.0641   -0.9047 H   0  0  0  0  0  0  0  0  0  0  0  0
   -1.7928    0.8284   -0.5006 H   0  0  0  0  0  0  0  0  0  0  0  0
   -1.0157   -1.2279   -1.7175 H   0  0  0  0  0  0  0  0  0  0  0  0
   -0.7280   -2.0128   -0.1593 H   0  0  0  0  0  0  0  0  0  0  0  0
   -2.3564   -1.5309   -0.6201 H   0  0  0  0  0  0  0  0  0  0  0  0
   -1.4027    1.0334    1.9291 H   0  0  0  0  0  0  0  0  0  0  0  0
   -0.8998   -0.6544    2.0095 H   0  0  0  0  0  0  0  0  0  0  0  0
   -2.5514   -0.2497    1.5520 H   0  0  0  0  0  0  0  0  0  0  0  0
    0.2372    0.8289   -2.1732 H   0  0  0  0  0  0  0  0  0  0  0  0
  1  2  1  0  0  0  0
  2  3  1  0  0  0  0
  3  4  1  0  0  0  0
  3  5  1  0  0  0  0
  5  6  1  0  0  0  0
  5  7  1  0  0  0  0
  3  8  1  0  0  0  0
  1  9  1  0  0  0  0
  1 10  1  0  0  0  0
  1 11  1  0  0  0  0
  2 12  1  0  0  0  0
  2 13  1  0  0  0  0
  5 14  1  0  0  0  0
  6 15  1  0  0  0  0
  6 16  1  0  0  0  0
  6 17  1  0  0  0  0
  7 18  1  0  0  0  0
  7 19  1  0  0  0  0
  7 20  1  0  0  0  0
  8 21  1  0  0  0  0
M  END
