 xtb: 6.7.1 (edcfbbe)
          04112512203D

 18 17  0     0  0            999 V2000
   -2.5139    0.6579    0.1541 C   0  0  0  0  0  0  0  0  0  0  0  0
   -1.1614    0.7196   -0.5476 C   0  0  0  0  0  0  0  0  0  0  0  0
   -0.0460   -0.0056    0.2139 C   0  0  0  0  0  0  0  0  0  0  0  0
   -0.0216    0.3657    1.2445 H   0  0  0  0  0  0  0  0  0  0  0  0
   -0.2693   -1.5169    0.2364 C   0  0  0  0  0  0  0  0  0  0  0  0
    1.3078    0.3325   -0.4305 C   0  0  0  0  0  0  0  0  0  0  0  0
    2.4233   -0.0750    0.3321 O   0  0  0  0  0  0  0  0  0  0  0  0
   -2.8912   -0.3599    0.1966 H   0  0  0  0  0  0  0  0  0  0  0  0
   -2.4326    1.0399    1.1691 H   0  0  0  0  0  0  0  0  0  0  0  0
   -3.2392    1.2638   -0.3832 H   0  0  0  0  0  0  0  0  0  0  0  0
   -0.8775    1.7680   -0.6647 H   0  0  0  0  0  0  0  0  0  0  0  0
   -1.2488    0.2887   -1.5474 H   0  0  0  0  0  0  0  0  0  0  0  0
   -1.2185   -1.7552    0.7067 H   0  0  0  0  0  0  0  0  0  0  0  0
    0.5119   -2.0161    0.8048 H   0  0  0  0  0  0  0  0  0  0  0  0
   -0.2751   -1.9133   -0.7773 H   0  0  0  0  0  0  0  0  0  0  0  0
    1.4128    1.4168   -0.5215 H   0  0  0  0  0  0  0  0  0  0  0  0
    1.3569   -0.1023   -1.4385 H   0  0  0  0  0  0  0  0  0  0  0  0
    2.4271   -1.0399    0.3929 H   0  0  0  0  0  0  0  0  0  0  0  0
  1  2  1  0  0  0  0
  2  3  1  0  0  0  0
  3  4  1  0  0  0  0
  3  5  1  0  0  0  0
  3  6  1  0  0  0  0
  6  7  1  0  0  0  0
  1  8  1  0  0  0  0
  1  9  1  0  0  0  0
  1 10  1  0  0  0  0
  2 11  1  0  0  0  0
  2 12  1  0  0  0  0
  5 13  1  0  0  0  0
  5 14  1  0  0  0  0
  5 15  1  0  0  0  0
  6 16  1  0  0  0  0
  6 17  1  0  0  0  0
  7 18  1  0  0  0  0
M  END
