 xtb: 6.7.1 (edcfbbe)
          04112511243D

 20 19  0     0  0            999 V2000
   -0.2749   -2.5554    0.3678 C   0  0  0  0  0  0  0  0  0  0  0  0
   -0.0451   -1.1132   -0.0433 C   0  0  0  0  0  0  0  0  0  0  0  0
    1.2333   -0.7224    0.4411 O   0  0  0  0  0  0  0  0  0  0  0  0
    1.7976    0.3875   -0.0619 C   0  0  0  0  0  0  0  0  0  0  0  0
    1.2680    1.0536   -0.9232 O   0  0  0  0  0  0  0  0  0  0  0  0
    3.1342    0.6438    0.5464 C   0  0  0  0  0  0  0  0  0  0  0  0
   -1.0069   -0.2816    0.5888 O   0  0  0  0  0  0  0  0  0  0  0  0
   -1.7984    0.6099   -0.0358 C   0  0  0  0  0  0  0  0  0  0  0  0
   -2.4791    1.3157    0.6730 O   0  0  0  0  0  0  0  0  0  0  0  0
   -1.8246    0.6698   -1.5305 C   0  0  0  0  0  0  0  0  0  0  0  0
   -0.2581   -2.6196    1.4512 H   0  0  0  0  0  0  0  0  0  0  0  0
    0.5127   -3.1755   -0.0467 H   0  0  0  0  0  0  0  0  0  0  0  0
   -1.2405   -2.8869    0.0009 H   0  0  0  0  0  0  0  0  0  0  0  0
   -0.0639   -0.9781   -1.1310 H   0  0  0  0  0  0  0  0  0  0  0  0
    3.1220    0.3626    1.5943 H   0  0  0  0  0  0  0  0  0  0  0  0
    3.8668    0.0238    0.0330 H   0  0  0  0  0  0  0  0  0  0  0  0
    3.4017    1.6875    0.4182 H   0  0  0  0  0  0  0  0  0  0  0  0
   -2.5786    1.3943   -1.8218 H   0  0  0  0  0  0  0  0  0  0  0  0
   -0.8516    0.9989   -1.8950 H   0  0  0  0  0  0  0  0  0  0  0  0
   -2.0633   -0.3016   -1.9560 H   0  0  0  0  0  0  0  0  0  0  0  0
  1  2  1  0  0  0  0
  2  3  1  0  0  0  0
  3  4  1  0  0  0  0
  4  5  2  0  0  0  0
  4  6  1  0  0  0  0
  2  7  1  0  0  0  0
  7  8  1  0  0  0  0
  8  9  2  0  0  0  0
  8 10  1  0  0  0  0
  1 11  1  0  0  0  0
  1 12  1  0  0  0  0
  1 13  1  0  0  0  0
  2 14  1  0  0  0  0
  6 15  1  0  0  0  0
  6 16  1  0  0  0  0
  6 17  1  0  0  0  0
 10 18  1  0  0  0  0
 10 19  1  0  0  0  0
 10 20  1  0  0  0  0
M  END
