 xtb: 6.7.1 (edcfbbe)
          04112511193D

 14 13  0     0  0            999 V2000
   -1.0130   -0.4794   -0.2667 C   0  0  0  0  0  0  0  0  0  0  0  0
    0.1509    0.3723    0.2590 C   0  0  0  0  0  0  0  0  0  0  0  0
    1.4723   -0.1005   -0.3694 C   0  0  0  0  0  0  0  0  0  0  0  0
    1.7267   -1.4177    0.0625 O   0  0  0  0  0  0  0  0  0  0  0  0
   -0.0480    1.7507    0.0533 O   0  0  0  0  0  0  0  0  0  0  0  0
   -2.2632   -0.1080    0.2619 O   0  0  0  0  0  0  0  0  0  0  0  0
   -0.7885   -1.5324   -0.0565 H   0  0  0  0  0  0  0  0  0  0  0  0
   -1.1059   -0.3494   -1.3487 H   0  0  0  0  0  0  0  0  0  0  0  0
    0.2298    0.2505    1.3456 H   0  0  0  0  0  0  0  0  0  0  0  0
    2.2669    0.5837   -0.0464 H   0  0  0  0  0  0  0  0  0  0  0  0
    1.3901   -0.0598   -1.4643 H   0  0  0  0  0  0  0  0  0  0  0  0
    2.5757   -1.7137   -0.2949 H   0  0  0  0  0  0  0  0  0  0  0  0
   -0.3240    1.9048   -0.8616 H   0  0  0  0  0  0  0  0  0  0  0  0
   -2.2387   -0.1799    1.2258 H   0  0  0  0  0  0  0  0  0  0  0  0
  1  2  1  0  0  0  0
  2  3  1  0  0  0  0
  3  4  1  0  0  0  0
  2  5  1  0  0  0  0
  1  6  1  0  0  0  0
  1  7  1  0  0  0  0
  1  8  1  0  0  0  0
  2  9  1  0  0  0  0
  3 10  1  0  0  0  0
  3 11  1  0  0  0  0
  4 12  1  0  0  0  0
  5 13  1  0  0  0  0
  6 14  1  0  0  0  0
M  END
