 xtb: 6.7.1 (edcfbbe)
          04082510373D

 16 15  0     0  0            999 V2000
   -2.0882    0.4138    0.5518 C   0  0  0  0  0  0  0  0  0  0  0  0
   -1.4261   -0.7654   -0.1494 C   0  0  0  0  0  0  0  0  0  0  0  0
   -0.2132   -0.3322   -0.9908 C   0  0  0  0  0  0  0  0  0  0  0  0
    0.8973    0.1710   -0.1022 C   0  0  0  0  0  0  0  0  0  0  0  0
    1.0470    1.3527    0.1441 O   0  0  0  0  0  0  0  0  0  0  0  0
    1.7982   -0.8879    0.4598 C   0  0  0  0  0  0  0  0  0  0  0  0
   -2.4673    1.1267   -0.1767 H   0  0  0  0  0  0  0  0  0  0  0  0
   -1.3764    0.9334    1.1904 H   0  0  0  0  0  0  0  0  0  0  0  0
   -2.9181    0.0731    1.1657 H   0  0  0  0  0  0  0  0  0  0  0  0
   -2.1488   -1.2428   -0.8127 H   0  0  0  0  0  0  0  0  0  0  0  0
   -1.1131   -1.5024    0.5921 H   0  0  0  0  0  0  0  0  0  0  0  0
    0.1432   -1.1835   -1.5695 H   0  0  0  0  0  0  0  0  0  0  0  0
   -0.5195    0.4694   -1.6644 H   0  0  0  0  0  0  0  0  0  0  0  0
    2.4581   -1.2296   -0.3356 H   0  0  0  0  0  0  0  0  0  0  0  0
    1.2187   -1.7395    0.8033 H   0  0  0  0  0  0  0  0  0  0  0  0
    2.4013   -0.4854    1.2688 H   0  0  0  0  0  0  0  0  0  0  0  0
  1  2  1  0  0  0  0
  2  3  1  0  0  0  0
  3  4  1  0  0  0  0
  4  5  2  0  0  0  0
  4  6  1  0  0  0  0
  1  7  1  0  0  0  0
  1  8  1  0  0  0  0
  1  9  1  0  0  0  0
  2 10  1  0  0  0  0
  2 11  1  0  0  0  0
  3 12  1  0  0  0  0
  3 13  1  0  0  0  0
  6 14  1  0  0  0  0
  6 15  1  0  0  0  0
  6 16  1  0  0  0  0
M  END
