 xtb: 6.7.1 (edcfbbe)
          04112512193D

 17 16  0     0  0            999 V2000
   -2.8319   -0.1879   -0.4206 C   0  0  0  0  0  0  0  0  0  0  0  0
   -1.6813    0.7399   -0.0539 C   0  0  0  0  0  0  0  0  0  0  0  0
   -0.4057   -0.0162    0.2175 C   0  0  0  0  0  0  0  0  0  0  0  0
   -0.3290   -1.2044    0.4447 O   0  0  0  0  0  0  0  0  0  0  0  0
    0.6451    0.7996    0.2028 O   0  0  0  0  0  0  0  0  0  0  0  0
    1.9464    0.2430    0.4553 C   0  0  0  0  0  0  0  0  0  0  0  0
    2.5687   -0.3002   -0.8220 C   0  0  0  0  0  0  0  0  0  0  0  0
   -3.7502    0.3799   -0.5319 H   0  0  0  0  0  0  0  0  0  0  0  0
   -2.6210   -0.7045   -1.3534 H   0  0  0  0  0  0  0  0  0  0  0  0
   -2.9683   -0.9376    0.3545 H   0  0  0  0  0  0  0  0  0  0  0  0
   -1.9180    1.2957    0.8563 H   0  0  0  0  0  0  0  0  0  0  0  0
   -1.4843    1.4677   -0.8411 H   0  0  0  0  0  0  0  0  0  0  0  0
    2.5263    1.0741    0.8576 H   0  0  0  0  0  0  0  0  0  0  0  0
    1.8481   -0.5500    1.2028 H   0  0  0  0  0  0  0  0  0  0  0  0
    2.6084    0.4782   -1.5792 H   0  0  0  0  0  0  0  0  0  0  0  0
    3.5746   -0.6488   -0.6122 H   0  0  0  0  0  0  0  0  0  0  0  0
    1.9780   -1.1322   -1.1990 H   0  0  0  0  0  0  0  0  0  0  0  0
  1  2  1  0  0  0  0
  2  3  1  0  0  0  0
  3  4  2  0  0  0  0
  3  5  1  0  0  0  0
  5  6  1  0  0  0  0
  6  7  1  0  0  0  0
  1  8  1  0  0  0  0
  1  9  1  0  0  0  0
  1 10  1  0  0  0  0
  2 11  1  0  0  0  0
  2 12  1  0  0  0  0
  6 13  1  0  0  0  0
  6 14  1  0  0  0  0
  7 15  1  0  0  0  0
  7 16  1  0  0  0  0
  7 17  1  0  0  0  0
M  END
