 xtb: 6.7.1 (edcfbbe)
          04112512203D

 18 17  0     0  0            999 V2000
   -1.8212    0.9061   -0.5882 C   0  0  0  0  0  0  0  0  0  0  0  0
   -0.9538    0.6229    0.6336 C   0  0  0  0  0  0  0  0  0  0  0  0
    0.0341   -0.5427    0.4726 C   0  0  0  0  0  0  0  0  0  0  0  0
    0.4650   -0.7347    1.4638 H   0  0  0  0  0  0  0  0  0  0  0  0
   -0.6389   -1.8256   -0.0086 C   0  0  0  0  0  0  0  0  0  0  0  0
    1.1921   -0.1733   -0.4650 C   0  0  0  0  0  0  0  0  0  0  0  0
    1.9598    0.9191   -0.0054 O   0  0  0  0  0  0  0  0  0  0  0  0
   -2.4445    1.7766   -0.3978 H   0  0  0  0  0  0  0  0  0  0  0  0
   -1.2090    1.1160   -1.4614 H   0  0  0  0  0  0  0  0  0  0  0  0
   -2.4721    0.0653   -0.8108 H   0  0  0  0  0  0  0  0  0  0  0  0
   -1.6045    0.4105    1.4849 H   0  0  0  0  0  0  0  0  0  0  0  0
   -0.3766    1.5200    0.8700 H   0  0  0  0  0  0  0  0  0  0  0  0
   -1.5034   -2.0508    0.6105 H   0  0  0  0  0  0  0  0  0  0  0  0
    0.0549   -2.6608    0.0515 H   0  0  0  0  0  0  0  0  0  0  0  0
   -0.9624   -1.7275   -1.0410 H   0  0  0  0  0  0  0  0  0  0  0  0
    0.8100    0.1325   -1.4410 H   0  0  0  0  0  0  0  0  0  0  0  0
    1.8365   -1.0510   -0.6132 H   0  0  0  0  0  0  0  0  0  0  0  0
    2.3674    0.6825    0.8391 H   0  0  0  0  0  0  0  0  0  0  0  0
  1  2  1  0  0  0  0
  2  3  1  0  0  0  0
  3  4  1  0  0  0  0
  3  5  1  0  0  0  0
  3  6  1  0  0  0  0
  6  7  1  0  0  0  0
  1  8  1  0  0  0  0
  1  9  1  0  0  0  0
  1 10  1  0  0  0  0
  2 11  1  0  0  0  0
  2 12  1  0  0  0  0
  5 13  1  0  0  0  0
  5 14  1  0  0  0  0
  5 15  1  0  0  0  0
  6 16  1  0  0  0  0
  6 17  1  0  0  0  0
  7 18  1  0  0  0  0
M  END
