 xtb: 6.7.1 (edcfbbe)
          04112510523D

 12 11  0     0  0            999 V2000
    0.0663   -0.1098   -0.2736 C   0  0  0  0  0  0  0  0  0  0  0  0
   -0.2425    0.1583   -1.2913 H   0  0  0  0  0  0  0  0  0  0  0  0
    1.4848    0.4129   -0.0162 C   0  0  0  0  0  0  0  0  0  0  0  0
    2.3507   -0.0489   -0.9198 F   0  0  0  0  0  0  0  0  0  0  0  0
    1.9450    0.0790    1.1865 F   0  0  0  0  0  0  0  0  0  0  0  0
    1.5185    1.7483   -0.0928 F   0  0  0  0  0  0  0  0  0  0  0  0
   -0.7550    0.4488    0.7076 O   0  0  0  0  0  0  0  0  0  0  0  0
   -2.0689    0.5926    0.4170 C   0  0  0  0  0  0  0  0  0  0  0  0
   -2.6704   -0.5861    0.1370 F   0  0  0  0  0  0  0  0  0  0  0  0
   -2.2487    1.3431   -0.6995 F   0  0  0  0  0  0  0  0  0  0  0  0
    0.1165   -1.8996   -0.1534 Cl  0  0  0  0  0  0  0  0  0  0  0  0
   -2.5719    1.0697    1.2681 H   0  0  0  0  0  0  0  0  0  0  0  0
  1  2  1  0  0  0  0
  1  3  1  0  0  0  0
  3  4  1  0  0  0  0
  3  5  1  0  0  0  0
  3  6  1  0  0  0  0
  1  7  1  0  0  0  0
  7  8  1  0  0  0  0
  8  9  1  0  0  0  0
  8 10  1  0  0  0  0
  1 11  1  0  0  0  0
  8 12  1  0  0  0  0
M  END
