 xtb: 6.7.1 (edcfbbe)
          04112511553D

 24 24  0     0  0            999 V2000
   -2.7776   -0.6657   -0.8507 C   0  0  0  0  0  0  0  0  0  0  0  0
   -2.0288    0.4725   -0.1637 C   0  0  0  0  0  0  0  0  0  0  0  0
   -1.2263    0.0015    1.0583 C   0  0  0  0  0  0  0  0  0  0  0  0
    0.2820   -0.1555    0.8383 C   0  0  0  0  0  0  0  0  0  0  0  0
    0.6953   -1.0410   -0.3405 C   0  0  0  0  0  0  0  0  0  0  0  0
    2.1483   -0.6420   -0.5734 C   0  0  0  0  0  0  0  0  0  0  0  0
    2.1108    0.8829   -0.4516 C   0  0  0  0  0  0  0  0  0  0  0  0
    1.0179    1.1777    0.5910 C   0  0  0  0  0  0  0  0  0  0  0  0
   -3.5044   -1.1045   -0.1703 H   0  0  0  0  0  0  0  0  0  0  0  0
   -3.3090   -0.2969   -1.7255 H   0  0  0  0  0  0  0  0  0  0  0  0
   -2.0940   -1.4487   -1.1680 H   0  0  0  0  0  0  0  0  0  0  0  0
   -1.3651    0.9536   -0.8836 H   0  0  0  0  0  0  0  0  0  0  0  0
   -2.7585    1.2218    0.1504 H   0  0  0  0  0  0  0  0  0  0  0  0
   -1.3598    0.7120    1.8774 H   0  0  0  0  0  0  0  0  0  0  0  0
   -1.6286   -0.9561    1.3956 H   0  0  0  0  0  0  0  0  0  0  0  0
    0.6918   -0.6068    1.7494 H   0  0  0  0  0  0  0  0  0  0  0  0
    0.5754   -2.1016   -0.1224 H   0  0  0  0  0  0  0  0  0  0  0  0
    0.1100   -0.7968   -1.2261 H   0  0  0  0  0  0  0  0  0  0  0  0
    2.7795   -1.0669    0.2090 H   0  0  0  0  0  0  0  0  0  0  0  0
    2.5284   -0.9724   -1.5392 H   0  0  0  0  0  0  0  0  0  0  0  0
    3.0770    1.2925   -0.1602 H   0  0  0  0  0  0  0  0  0  0  0  0
    1.8398    1.3189   -1.4141 H   0  0  0  0  0  0  0  0  0  0  0  0
    1.4480    1.5521    1.5197 H   0  0  0  0  0  0  0  0  0  0  0  0
    0.3289    1.9371    0.2230 H   0  0  0  0  0  0  0  0  0  0  0  0
  1  2  1  0  0  0  0
  2  3  1  0  0  0  0
  3  4  1  0  0  0  0
  4  5  1  0  0  0  0
  5  6  1  0  0  0  0
  6  7  1  0  0  0  0
  4  8  1  0  0  0  0
  7  8  1  0  0  0  0
  1  9  1  0  0  0  0
  1 10  1  0  0  0  0
  1 11  1  0  0  0  0
  2 12  1  0  0  0  0
  2 13  1  0  0  0  0
  3 14  1  0  0  0  0
  3 15  1  0  0  0  0
  4 16  1  0  0  0  0
  5 17  1  0  0  0  0
  5 18  1  0  0  0  0
  6 19  1  0  0  0  0
  6 20  1  0  0  0  0
  7 21  1  0  0  0  0
  7 22  1  0  0  0  0
  8 23  1  0  0  0  0
  8 24  1  0  0  0  0
M  END
