 xtb: 6.7.1 (edcfbbe)
          04112512013D

 22 22  0     0  0            999 V2000
    2.9545    0.2939   -1.6510 C   0  0  0  0  0  0  0  0  0  0  0  0
    3.1044   -0.8564   -0.6526 C   0  0  0  0  0  0  0  0  0  0  0  0
    3.2273   -0.3162    0.7525 C   0  0  0  0  0  0  0  0  0  0  0  0
    4.2842   -0.3466    1.3727 O   0  0  0  0  0  0  0  0  0  0  0  0
    2.1513    0.2953    1.3052 N   0  0  0  0  0  0  0  0  0  0  0  0
    0.8432    0.4298    0.8168 C   0  0  0  0  0  0  0  0  0  0  0  0
    0.2537    1.6930    0.7847 C   0  0  0  0  0  0  0  0  0  0  0  0
   -1.0372    1.8519    0.3205 C   0  0  0  0  0  0  0  0  0  0  0  0
   -1.7616    0.7511   -0.1122 C   0  0  0  0  0  0  0  0  0  0  0  0
   -1.1902   -0.5146   -0.0517 C   0  0  0  0  0  0  0  0  0  0  0  0
    0.1010   -0.6789    0.4194 C   0  0  0  0  0  0  0  0  0  0  0  0
   -2.0968   -1.9064   -0.5477 Cl  0  0  0  0  0  0  0  0  0  0  0  0
   -3.3769    0.9534   -0.7071 Cl  0  0  0  0  0  0  0  0  0  0  0  0
    3.7826    0.9913   -1.5502 H   0  0  0  0  0  0  0  0  0  0  0  0
    2.0225    0.8292   -1.4890 H   0  0  0  0  0  0  0  0  0  0  0  0
    2.9564   -0.1000   -2.6632 H   0  0  0  0  0  0  0  0  0  0  0  0
    4.0205   -1.4100   -0.8622 H   0  0  0  0  0  0  0  0  0  0  0  0
    2.2583   -1.5325   -0.7422 H   0  0  0  0  0  0  0  0  0  0  0  0
    2.3616    0.8106    2.1532 H   0  0  0  0  0  0  0  0  0  0  0  0
    0.8128    2.5533    1.1148 H   0  0  0  0  0  0  0  0  0  0  0  0
   -1.4908    2.8282    0.2851 H   0  0  0  0  0  0  0  0  0  0  0  0
    0.5090   -1.6724    0.4971 H   0  0  0  0  0  0  0  0  0  0  0  0
  1  2  1  0  0  0  0
  2  3  1  0  0  0  0
  3  4  2  0  0  0  0
  3  5  4  0  0  0  0
  5  6  1  0  0  0  0
  6  7  4  0  0  0  0
  7  8  4  0  0  0  0
  8  9  4  0  0  0  0
  9 10  4  0  0  0  0
  6 11  4  0  0  0  0
 10 11  4  0  0  0  0
 10 12  1  0  0  0  0
  9 13  1  0  0  0  0
  1 14  1  0  0  0  0
  1 15  1  0  0  0  0
  1 16  1  0  0  0  0
  2 17  1  0  0  0  0
  2 18  1  0  0  0  0
  5 19  1  0  0  0  0
  7 20  1  0  0  0  0
  8 21  1  0  0  0  0
 11 22  1  0  0  0  0
M  END
