 xtb: 6.7.1 (edcfbbe)
          04112511203D

 21 20  0     0  0            999 V2000
   -2.2585    0.6059   -0.9810 C   0  0  0  0  0  0  0  0  0  0  0  0
   -1.8533   -0.3892    0.1005 C   0  0  0  0  0  0  0  0  0  0  0  0
   -0.5945   -0.0161    0.8878 C   0  0  0  0  0  0  0  0  0  0  0  0
    0.7687   -0.0448    0.1589 C   0  0  0  0  0  0  0  0  0  0  0  0
    1.0414    1.2442   -0.6231 C   0  0  0  0  0  0  0  0  0  0  0  0
    0.9094   -1.2628   -0.7540 C   0  0  0  0  0  0  0  0  0  0  0  0
    1.7900   -0.2012    1.1523 O   0  0  0  0  0  0  0  0  0  0  0  0
   -2.2620    1.6197   -0.5877 H   0  0  0  0  0  0  0  0  0  0  0  0
   -3.2592    0.3744   -1.3390 H   0  0  0  0  0  0  0  0  0  0  0  0
   -1.5841    0.5654   -1.8316 H   0  0  0  0  0  0  0  0  0  0  0  0
   -2.6681   -0.4538    0.8263 H   0  0  0  0  0  0  0  0  0  0  0  0
   -1.7356   -1.3796   -0.3397 H   0  0  0  0  0  0  0  0  0  0  0  0
   -0.7345    0.9785    1.3203 H   0  0  0  0  0  0  0  0  0  0  0  0
   -0.5072   -0.7258    1.7159 H   0  0  0  0  0  0  0  0  0  0  0  0
    2.0694    1.2347   -0.9796 H   0  0  0  0  0  0  0  0  0  0  0  0
    0.9033    2.1152    0.0147 H   0  0  0  0  0  0  0  0  0  0  0  0
    0.3799    1.3324   -1.4767 H   0  0  0  0  0  0  0  0  0  0  0  0
    1.9362   -1.3221   -1.1060 H   0  0  0  0  0  0  0  0  0  0  0  0
    0.2452   -1.1868   -1.6078 H   0  0  0  0  0  0  0  0  0  0  0  0
    0.6882   -2.1693   -0.1970 H   0  0  0  0  0  0  0  0  0  0  0  0
    1.7904    0.5758    1.7267 H   0  0  0  0  0  0  0  0  0  0  0  0
  1  2  1  0  0  0  0
  2  3  1  0  0  0  0
  3  4  1  0  0  0  0
  4  5  1  0  0  0  0
  4  6  1  0  0  0  0
  4  7  1  0  0  0  0
  1  8  1  0  0  0  0
  1  9  1  0  0  0  0
  1 10  1  0  0  0  0
  2 11  1  0  0  0  0
  2 12  1  0  0  0  0
  3 13  1  0  0  0  0
  3 14  1  0  0  0  0
  5 15  1  0  0  0  0
  5 16  1  0  0  0  0
  5 17  1  0  0  0  0
  6 18  1  0  0  0  0
  6 19  1  0  0  0  0
  6 20  1  0  0  0  0
  7 21  1  0  0  0  0
M  END
