 xtb: 6.7.1 (edcfbbe)
          04112511493D

 17 16  0     0  0            999 V2000
   -3.2280    0.4788    0.0772 C   0  0  0  0  0  0  0  0  0  0  0  0
   -1.8936   -0.2387    0.2317 C   0  0  0  0  0  0  0  0  0  0  0  0
   -0.7323    0.6276   -0.2657 C   0  0  0  0  0  0  0  0  0  0  0  0
    0.5645   -0.1366   -0.2320 C   0  0  0  0  0  0  0  0  0  0  0  0
    0.7277   -1.2465   -0.6949 O   0  0  0  0  0  0  0  0  0  0  0  0
    1.5220    0.5587    0.3700 O   0  0  0  0  0  0  0  0  0  0  0  0
    2.8309   -0.0102    0.4837 C   0  0  0  0  0  0  0  0  0  0  0  0
   -4.0350   -0.1462    0.4494 H   0  0  0  0  0  0  0  0  0  0  0  0
   -3.2259    1.4101    0.6376 H   0  0  0  0  0  0  0  0  0  0  0  0
   -3.4212    0.7047   -0.9683 H   0  0  0  0  0  0  0  0  0  0  0  0
   -1.8998   -1.1714   -0.3356 H   0  0  0  0  0  0  0  0  0  0  0  0
   -1.7300   -0.4896    1.2816 H   0  0  0  0  0  0  0  0  0  0  0  0
   -0.6250    1.5301    0.3348 H   0  0  0  0  0  0  0  0  0  0  0  0
   -0.9189    0.9109   -1.3039 H   0  0  0  0  0  0  0  0  0  0  0  0
    3.5385    0.7515    0.1651 H   0  0  0  0  0  0  0  0  0  0  0  0
    2.9041   -0.8980   -0.1453 H   0  0  0  0  0  0  0  0  0  0  0  0
    3.0001   -0.2742    1.5266 H   0  0  0  0  0  0  0  0  0  0  0  0
  1  2  1  0  0  0  0
  2  3  1  0  0  0  0
  3  4  1  0  0  0  0
  4  5  2  0  0  0  0
  4  6  1  0  0  0  0
  6  7  1  0  0  0  0
  1  8  1  0  0  0  0
  1  9  1  0  0  0  0
  1 10  1  0  0  0  0
  2 11  1  0  0  0  0
  2 12  1  0  0  0  0
  3 13  1  0  0  0  0
  3 14  1  0  0  0  0
  7 15  1  0  0  0  0
  7 16  1  0  0  0  0
  7 17  1  0  0  0  0
M  END
