 xtb: 6.7.1 (edcfbbe)
          04112511033D

 23 22  0     0  0            999 V2000
    1.3945    1.4984    0.8403 C   0  0  0  0  0  0  0  0  0  0  0  0
    1.4348    0.1697    0.0938 C   0  0  0  0  0  0  0  0  0  0  0  0
    0.0848   -0.5362   -0.1463 C   0  0  0  0  0  0  0  0  0  0  0  0
    0.3800   -1.7655   -1.0199 C   0  0  0  0  0  0  0  0  0  0  0  0
   -0.5055   -1.0295    1.1764 C   0  0  0  0  0  0  0  0  0  0  0  0
   -0.9082    0.3592   -0.9218 C   0  0  0  0  0  0  0  0  0  0  0  0
   -1.8364    1.2433   -0.0920 C   0  0  0  0  0  0  0  0  0  0  0  0
    0.9040    1.3962    1.8045 H   0  0  0  0  0  0  0  0  0  0  0  0
    0.8799    2.2588    0.2598 H   0  0  0  0  0  0  0  0  0  0  0  0
    2.4114    1.8439    1.0163 H   0  0  0  0  0  0  0  0  0  0  0  0
    1.9083    0.3377   -0.8773 H   0  0  0  0  0  0  0  0  0  0  0  0
    2.0758   -0.5187    0.6508 H   0  0  0  0  0  0  0  0  0  0  0  0
    1.1401   -2.3912   -0.5571 H   0  0  0  0  0  0  0  0  0  0  0  0
    0.7393   -1.4608   -2.0007 H   0  0  0  0  0  0  0  0  0  0  0  0
   -0.5181   -2.3642   -1.1543 H   0  0  0  0  0  0  0  0  0  0  0  0
   -1.4472   -1.5444    1.0006 H   0  0  0  0  0  0  0  0  0  0  0  0
    0.1811   -1.7288    1.6491 H   0  0  0  0  0  0  0  0  0  0  0  0
   -0.6845   -0.2104    1.8656 H   0  0  0  0  0  0  0  0  0  0  0  0
   -0.3364    0.9883   -1.6081 H   0  0  0  0  0  0  0  0  0  0  0  0
   -1.5410   -0.2876   -1.5349 H   0  0  0  0  0  0  0  0  0  0  0  0
   -2.5250    0.6411    0.4940 H   0  0  0  0  0  0  0  0  0  0  0  0
   -1.2874    1.8922    0.5822 H   0  0  0  0  0  0  0  0  0  0  0  0
   -2.4247    1.8693   -0.7604 H   0  0  0  0  0  0  0  0  0  0  0  0
  1  2  1  0  0  0  0
  2  3  1  0  0  0  0
  3  4  1  0  0  0  0
  3  5  1  0  0  0  0
  3  6  1  0  0  0  0
  6  7  1  0  0  0  0
  1  8  1  0  0  0  0
  1  9  1  0  0  0  0
  1 10  1  0  0  0  0
  2 11  1  0  0  0  0
  2 12  1  0  0  0  0
  4 13  1  0  0  0  0
  4 14  1  0  0  0  0
  4 15  1  0  0  0  0
  5 16  1  0  0  0  0
  5 17  1  0  0  0  0
  5 18  1  0  0  0  0
  6 19  1  0  0  0  0
  6 20  1  0  0  0  0
  7 21  1  0  0  0  0
  7 22  1  0  0  0  0
  7 23  1  0  0  0  0
M  END
