 xtb: 6.7.1 (edcfbbe)
          04112511513D

 19 19  0     0  0            999 V2000
    2.0509   -2.5121    0.1957 C   0  0  0  0  0  0  0  0  0  0  0  0
    0.8116   -1.8492   -0.0181 O   0  0  0  0  0  0  0  0  0  0  0  0
    0.6632   -0.5146    0.0146 C   0  0  0  0  0  0  0  0  0  0  0  0
    1.6378    0.4896    0.0490 C   0  0  0  0  0  0  0  0  0  0  0  0
    1.2800    1.8309    0.0310 C   0  0  0  0  0  0  0  0  0  0  0  0
   -0.0398    2.2271   -0.0369 C   0  0  0  0  0  0  0  0  0  0  0  0
   -1.0200    1.2504   -0.0839 C   0  0  0  0  0  0  0  0  0  0  0  0
   -0.6854   -0.0960   -0.0428 C   0  0  0  0  0  0  0  0  0  0  0  0
   -1.7555   -1.1406   -0.0786 C   0  0  0  0  0  0  0  0  0  0  0  0
   -2.6127   -1.1963   -0.9331 O   0  0  0  0  0  0  0  0  0  0  0  0
   -1.6816   -1.9809    0.9309 O   0  0  0  0  0  0  0  0  0  0  0  0
   -2.6831    1.7136   -0.1556 Cl  0  0  0  0  0  0  0  0  0  0  0  0
    3.3504    0.1757    0.1015 Cl  0  0  0  0  0  0  0  0  0  0  0  0
    2.5054   -2.2124    1.1398 H   0  0  0  0  0  0  0  0  0  0  0  0
    2.7424   -2.3417   -0.6299 H   0  0  0  0  0  0  0  0  0  0  0  0
    1.7848   -3.5665    0.2362 H   0  0  0  0  0  0  0  0  0  0  0  0
    2.0607    2.5736    0.0631 H   0  0  0  0  0  0  0  0  0  0  0  0
   -0.3079    3.2687   -0.0544 H   0  0  0  0  0  0  0  0  0  0  0  0
   -2.3685   -2.6770    0.8977 H   0  0  0  0  0  0  0  0  0  0  0  0
  1  2  1  0  0  0  0
  2  3  1  0  0  0  0
  3  4  4  0  0  0  0
  4  5  4  0  0  0  0
  5  6  4  0  0  0  0
  6  7  4  0  0  0  0
  3  8  4  0  0  0  0
  7  8  4  0  0  0  0
  8  9  1  0  0  0  0
  9 10  2  0  0  0  0
  9 11  4  0  0  0  0
  7 12  1  0  0  0  0
  4 13  1  0  0  0  0
  1 14  1  0  0  0  0
  1 15  1  0  0  0  0
  1 16  1  0  0  0  0
  5 17  1  0  0  0  0
  6 18  1  0  0  0  0
 11 19  1  0  0  0  0
M  END
