 xtb: 6.7.1 (edcfbbe)
          04112511193D

 14 13  0     0  0            999 V2000
   -1.0140   -0.4640   -0.3154 C   0  0  0  0  0  0  0  0  0  0  0  0
    0.1445    0.3491    0.2761 C   0  0  0  0  0  0  0  0  0  0  0  0
    1.4782   -0.0737   -0.3421 C   0  0  0  0  0  0  0  0  0  0  0  0
    1.7397   -1.4087    0.0239 O   0  0  0  0  0  0  0  0  0  0  0  0
   -0.0285    1.7291    0.0403 O   0  0  0  0  0  0  0  0  0  0  0  0
   -2.2493   -0.1065    0.2633 O   0  0  0  0  0  0  0  0  0  0  0  0
   -0.8013   -1.5306   -0.1948 H   0  0  0  0  0  0  0  0  0  0  0  0
   -1.1056   -0.2349   -1.3800 H   0  0  0  0  0  0  0  0  0  0  0  0
    0.1961    0.1615    1.3619 H   0  0  0  0  0  0  0  0  0  0  0  0
    2.2547    0.6042    0.0322 H   0  0  0  0  0  0  0  0  0  0  0  0
    1.4121    0.0349   -1.4320 H   0  0  0  0  0  0  0  0  0  0  0  0
    2.5934   -1.6770   -0.3434 H   0  0  0  0  0  0  0  0  0  0  0  0
   -0.9737    1.9287    0.1305 H   0  0  0  0  0  0  0  0  0  0  0  0
   -2.2866   -0.4362    1.1718 H   0  0  0  0  0  0  0  0  0  0  0  0
  1  2  1  0  0  0  0
  2  3  1  0  0  0  0
  3  4  1  0  0  0  0
  2  5  1  0  0  0  0
  1  6  1  0  0  0  0
  1  7  1  0  0  0  0
  1  8  1  0  0  0  0
  2  9  1  0  0  0  0
  3 10  1  0  0  0  0
  3 11  1  0  0  0  0
  4 12  1  0  0  0  0
  5 13  1  0  0  0  0
  6 14  1  0  0  0  0
M  END
