 xtb: 6.7.1 (edcfbbe)
          04112511243D

 20 19  0     0  0            999 V2000
   -0.2087   -2.5570    0.0195 C   0  0  0  0  0  0  0  0  0  0  0  0
    0.0432   -1.0784   -0.2010 C   0  0  0  0  0  0  0  0  0  0  0  0
    1.2750   -0.7498    0.4184 O   0  0  0  0  0  0  0  0  0  0  0  0
    1.7711    0.4867    0.2453 C   0  0  0  0  0  0  0  0  0  0  0  0
    1.2041    1.3338   -0.4076 O   0  0  0  0  0  0  0  0  0  0  0  0
    3.0811    0.6490    0.9428 C   0  0  0  0  0  0  0  0  0  0  0  0
   -0.9740   -0.2995    0.4164 O   0  0  0  0  0  0  0  0  0  0  0  0
   -1.7592    0.4765   -0.3496 C   0  0  0  0  0  0  0  0  0  0  0  0
   -1.7052    0.4814   -1.5569 O   0  0  0  0  0  0  0  0  0  0  0  0
   -2.7139    1.2637    0.4867 C   0  0  0  0  0  0  0  0  0  0  0  0
   -0.2867   -2.7469    1.0856 H   0  0  0  0  0  0  0  0  0  0  0  0
    0.6201   -3.1224   -0.3927 H   0  0  0  0  0  0  0  0  0  0  0  0
   -1.1316   -2.8425   -0.4748 H   0  0  0  0  0  0  0  0  0  0  0  0
    0.0815   -0.8053   -1.2673 H   0  0  0  0  0  0  0  0  0  0  0  0
    3.8627    0.7351    0.1911 H   0  0  0  0  0  0  0  0  0  0  0  0
    3.0708    1.5708    1.5176 H   0  0  0  0  0  0  0  0  0  0  0  0
    3.2702   -0.2080    1.5792 H   0  0  0  0  0  0  0  0  0  0  0  0
   -3.0809    2.1105   -0.0835 H   0  0  0  0  0  0  0  0  0  0  0  0
   -3.5504    0.6189    0.7486 H   0  0  0  0  0  0  0  0  0  0  0  0
   -2.2259    1.5853    1.4009 H   0  0  0  0  0  0  0  0  0  0  0  0
  1  2  1  0  0  0  0
  2  3  1  0  0  0  0
  3  4  1  0  0  0  0
  4  5  2  0  0  0  0
  4  6  1  0  0  0  0
  2  7  1  0  0  0  0
  7  8  1  0  0  0  0
  8  9  2  0  0  0  0
  8 10  1  0  0  0  0
  1 11  1  0  0  0  0
  1 12  1  0  0  0  0
  1 13  1  0  0  0  0
  2 14  1  0  0  0  0
  6 15  1  0  0  0  0
  6 16  1  0  0  0  0
  6 17  1  0  0  0  0
 10 18  1  0  0  0  0
 10 19  1  0  0  0  0
 10 20  1  0  0  0  0
M  END
