 xtb: 6.7.1 (edcfbbe)
          04112511173D

 35 35  0     0  0            999 V2000
   -0.3254   -2.7333   -0.1823 C   0  0  0  0  0  0  0  0  0  0  0  0
    0.4865   -1.4844   -0.0554 C   0  0  0  0  0  0  0  0  0  0  0  0
    1.8523   -1.4247   -0.3760 C   0  0  0  0  0  0  0  0  0  0  0  0
    2.5572   -0.3159   -0.2462 N   0  0  0  0  0  0  0  0  0  0  0  0
    1.9401    0.7887    0.2030 C   0  0  0  0  0  0  0  0  0  0  0  0
    0.6271    0.8427    0.5011 N   0  0  0  0  0  0  0  0  0  0  0  0
   -0.0535   -0.2747    0.3606 C   0  0  0  0  0  0  0  0  0  0  0  0
   -1.3987   -0.1760    0.7081 O   0  0  0  0  0  0  0  0  0  0  0  0
   -2.2793   -0.0801   -0.3300 C   0  0  0  0  0  0  0  0  0  0  0  0
   -1.9211   -0.1357   -1.4976 O   0  0  0  0  0  0  0  0  0  0  0  0
   -3.5409    0.0681    0.0762 N   0  0  0  0  0  0  0  0  0  0  0  0
   -4.6058    0.1749   -0.8986 C   0  0  0  0  0  0  0  0  0  0  0  0
   -3.9468    0.1407    1.4632 C   0  0  0  0  0  0  0  0  0  0  0  0
    2.6671    1.8990    0.3603 N   0  0  0  0  0  0  0  0  0  0  0  0
    2.0869    3.1381    0.8160 C   0  0  0  0  0  0  0  0  0  0  0  0
    4.0746    1.9379    0.0450 C   0  0  0  0  0  0  0  0  0  0  0  0
    2.5811   -2.6244   -0.8851 C   0  0  0  0  0  0  0  0  0  0  0  0
   -0.5992   -2.8966   -1.2254 H   0  0  0  0  0  0  0  0  0  0  0  0
    0.2384   -3.5940    0.1680 H   0  0  0  0  0  0  0  0  0  0  0  0
   -1.2405   -2.6478    0.3999 H   0  0  0  0  0  0  0  0  0  0  0  0
   -5.1090    1.1359   -0.7914 H   0  0  0  0  0  0  0  0  0  0  0  0
   -5.3250   -0.6300   -0.7468 H   0  0  0  0  0  0  0  0  0  0  0  0
   -4.1742    0.0983   -1.8936 H   0  0  0  0  0  0  0  0  0  0  0  0
   -3.0718    0.1308    2.1049 H   0  0  0  0  0  0  0  0  0  0  0  0
   -4.5855   -0.7108    1.7024 H   0  0  0  0  0  0  0  0  0  0  0  0
   -4.5058    1.0625    1.6251 H   0  0  0  0  0  0  0  0  0  0  0  0
    2.5888    3.4660    1.7278 H   0  0  0  0  0  0  0  0  0  0  0  0
    1.0317    2.9809    1.0146 H   0  0  0  0  0  0  0  0  0  0  0  0
    2.2047    3.9067    0.0499 H   0  0  0  0  0  0  0  0  0  0  0  0
    4.2552    2.6562   -0.7566 H   0  0  0  0  0  0  0  0  0  0  0  0
    4.3904    0.9493   -0.2718 H   0  0  0  0  0  0  0  0  0  0  0  0
    4.6392    2.2421    0.9276 H   0  0  0  0  0  0  0  0  0  0  0  0
    3.5967   -2.3449   -1.1444 H   0  0  0  0  0  0  0  0  0  0  0  0
    2.6043   -3.3976   -0.1198 H   0  0  0  0  0  0  0  0  0  0  0  0
    2.0729   -3.0250   -1.7589 H   0  0  0  0  0  0  0  0  0  0  0  0
  1  2  1  0  0  0  0
  2  3  4  0  0  0  0
  3  4  4  0  0  0  0
  4  5  4  0  0  0  0
  5  6  4  0  0  0  0
  2  7  4  0  0  0  0
  6  7  4  0  0  0  0
  7  8  1  0  0  0  0
  8  9  1  0  0  0  0
  9 10  2  0  0  0  0
  9 11  4  0  0  0  0
 11 12  1  0  0  0  0
 11 13  1  0  0  0  0
  5 14  4  0  0  0  0
 14 15  1  0  0  0  0
 14 16  1  0  0  0  0
  3 17  1  0  0  0  0
  1 18  1  0  0  0  0
  1 19  1  0  0  0  0
  1 20  1  0  0  0  0
 12 21  1  0  0  0  0
 12 22  1  0  0  0  0
 12 23  1  0  0  0  0
 13 24  1  0  0  0  0
 13 25  1  0  0  0  0
 13 26  1  0  0  0  0
 15 27  1  0  0  0  0
 15 28  1  0  0  0  0
 15 29  1  0  0  0  0
 16 30  1  0  0  0  0
 16 31  1  0  0  0  0
 16 32  1  0  0  0  0
 17 33  1  0  0  0  0
 17 34  1  0  0  0  0
 17 35  1  0  0  0  0
M  END
