 xtb: 6.7.1 (edcfbbe)
          04112511233D

 24 24  0     0  0            999 V2000
    2.0025    1.1296   -1.0406 C   0  0  0  0  0  0  0  0  0  0  0  0
    2.0973   -0.2025   -0.3019 C   0  0  0  0  0  0  0  0  0  0  0  0
    3.5315   -0.4572    0.1557 C   0  0  0  0  0  0  0  0  0  0  0  0
    1.1448   -0.2270    0.9066 C   0  0  0  0  0  0  0  0  0  0  0  0
   -0.2934   -0.1366    0.4866 C   0  0  0  0  0  0  0  0  0  0  0  0
   -1.0044    1.0509    0.6048 C   0  0  0  0  0  0  0  0  0  0  0  0
   -2.3217    1.1325    0.1872 C   0  0  0  0  0  0  0  0  0  0  0  0
   -2.9478    0.0245   -0.3571 C   0  0  0  0  0  0  0  0  0  0  0  0
   -2.2496   -1.1656   -0.4780 C   0  0  0  0  0  0  0  0  0  0  0  0
   -0.9340   -1.2435   -0.0587 C   0  0  0  0  0  0  0  0  0  0  0  0
    2.2941    1.9475   -0.3850 H   0  0  0  0  0  0  0  0  0  0  0  0
    0.9853    1.3066   -1.3827 H   0  0  0  0  0  0  0  0  0  0  0  0
    2.6618    1.1316   -1.9054 H   0  0  0  0  0  0  0  0  0  0  0  0
    1.7997   -1.0023   -0.9893 H   0  0  0  0  0  0  0  0  0  0  0  0
    3.8499    0.3173    0.8502 H   0  0  0  0  0  0  0  0  0  0  0  0
    3.6124   -1.4204    0.6543 H   0  0  0  0  0  0  0  0  0  0  0  0
    4.2078   -0.4536   -0.6957 H   0  0  0  0  0  0  0  0  0  0  0  0
    1.3918    0.6048    1.5689 H   0  0  0  0  0  0  0  0  0  0  0  0
    1.3021   -1.1586    1.4550 H   0  0  0  0  0  0  0  0  0  0  0  0
   -0.5226    1.9202    1.0289 H   0  0  0  0  0  0  0  0  0  0  0  0
   -2.8606    2.0634    0.2867 H   0  0  0  0  0  0  0  0  0  0  0  0
   -3.9753    0.0867   -0.6835 H   0  0  0  0  0  0  0  0  0  0  0  0
   -2.7332   -2.0350   -0.8989 H   0  0  0  0  0  0  0  0  0  0  0  0
   -0.3954   -2.1759   -0.1518 H   0  0  0  0  0  0  0  0  0  0  0  0
  1  2  1  0  0  0  0
  2  3  1  0  0  0  0
  2  4  1  0  0  0  0
  4  5  1  0  0  0  0
  5  6  4  0  0  0  0
  6  7  4  0  0  0  0
  7  8  4  0  0  0  0
  8  9  4  0  0  0  0
  5 10  4  0  0  0  0
  9 10  4  0  0  0  0
  1 11  1  0  0  0  0
  1 12  1  0  0  0  0
  1 13  1  0  0  0  0
  2 14  1  0  0  0  0
  3 15  1  0  0  0  0
  3 16  1  0  0  0  0
  3 17  1  0  0  0  0
  4 18  1  0  0  0  0
  4 19  1  0  0  0  0
  6 20  1  0  0  0  0
  7 21  1  0  0  0  0
  8 22  1  0  0  0  0
  9 23  1  0  0  0  0
 10 24  1  0  0  0  0
M  END
