 xtb: 6.7.1 (edcfbbe)
          04112512223D

 23 22  0     0  0            999 V2000
   -2.4147    0.7209    0.6581 C   0  0  0  0  0  0  0  0  0  0  0  0
   -1.2848   -0.1850    0.1690 C   0  0  0  0  0  0  0  0  0  0  0  0
   -1.6954   -0.8606   -1.1378 C   0  0  0  0  0  0  0  0  0  0  0  0
   -0.0000    0.6356   -0.0004 C   0  0  0  0  0  0  0  0  0  0  0  0
    1.2849   -0.1849   -0.1691 C   0  0  0  0  0  0  0  0  0  0  0  0
    2.4149    0.7211   -0.6578 C   0  0  0  0  0  0  0  0  0  0  0  0
    1.6951   -0.8604    1.1379 C   0  0  0  0  0  0  0  0  0  0  0  0
   -3.3350    0.1535    0.7769 H   0  0  0  0  0  0  0  0  0  0  0  0
   -2.1621    1.1682    1.6167 H   0  0  0  0  0  0  0  0  0  0  0  0
   -2.5944    1.5204   -0.0577 H   0  0  0  0  0  0  0  0  0  0  0  0
   -1.1187   -0.9598    0.9242 H   0  0  0  0  0  0  0  0  0  0  0  0
   -2.6114   -1.4302   -0.9973 H   0  0  0  0  0  0  0  0  0  0  0  0
   -1.8711   -0.1136   -1.9093 H   0  0  0  0  0  0  0  0  0  0  0  0
   -0.9248   -1.5420   -1.4881 H   0  0  0  0  0  0  0  0  0  0  0  0
    0.1225    1.2833    0.8714 H   0  0  0  0  0  0  0  0  0  0  0  0
   -0.1226    1.2826   -0.8726 H   0  0  0  0  0  0  0  0  0  0  0  0
    1.1192   -0.9597   -0.9244 H   0  0  0  0  0  0  0  0  0  0  0  0
    2.1628    1.1681   -1.6166 H   0  0  0  0  0  0  0  0  0  0  0  0
    2.5940    1.5208    0.0579 H   0  0  0  0  0  0  0  0  0  0  0  0
    3.3354    0.1540   -0.7758 H   0  0  0  0  0  0  0  0  0  0  0  0
    2.6115   -1.4294    0.9980 H   0  0  0  0  0  0  0  0  0  0  0  0
    1.8698   -0.1134    1.9096 H   0  0  0  0  0  0  0  0  0  0  0  0
    0.9246   -1.5423    1.4877 H   0  0  0  0  0  0  0  0  0  0  0  0
  1  2  1  0  0  0  0
  2  3  1  0  0  0  0
  2  4  1  0  0  0  0
  4  5  1  0  0  0  0
  5  6  1  0  0  0  0
  5  7  1  0  0  0  0
  1  8  1  0  0  0  0
  1  9  1  0  0  0  0
  1 10  1  0  0  0  0
  2 11  1  0  0  0  0
  3 12  1  0  0  0  0
  3 13  1  0  0  0  0
  3 14  1  0  0  0  0
  4 15  1  0  0  0  0
  4 16  1  0  0  0  0
  5 17  1  0  0  0  0
  6 18  1  0  0  0  0
  6 19  1  0  0  0  0
  6 20  1  0  0  0  0
  7 21  1  0  0  0  0
  7 22  1  0  0  0  0
  7 23  1  0  0  0  0
M  END
