 xtb: 6.7.1 (edcfbbe)
          04072507453D

 21 20  0     0  0            999 V2000
    2.1547   -0.2348   -1.1368 C   0  0  0  0  0  0  0  0  0  0  0  0
    1.3372   -0.2945    0.1573 C   0  0  0  0  0  0  0  0  0  0  0  0
    1.5613    0.9717    0.9784 C   0  0  0  0  0  0  0  0  0  0  0  0
   -0.0095   -0.6058   -0.2146 O   0  0  0  0  0  0  0  0  0  0  0  0
   -1.1299    0.1581    0.2257 C   0  0  0  0  0  0  0  0  0  0  0  0
   -1.8390    0.7413   -0.9990 C   0  0  0  0  0  0  0  0  0  0  0  0
   -2.0659   -0.7596    1.0160 C   0  0  0  0  0  0  0  0  0  0  0  0
    3.2161   -0.1984   -0.9109 H   0  0  0  0  0  0  0  0  0  0  0  0
    1.9464   -1.1164   -1.7363 H   0  0  0  0  0  0  0  0  0  0  0  0
    1.8792    0.6465   -1.7108 H   0  0  0  0  0  0  0  0  0  0  0  0
    1.6854   -1.1557    0.7523 H   0  0  0  0  0  0  0  0  0  0  0  0
    1.2216    1.8532    0.4388 H   0  0  0  0  0  0  0  0  0  0  0  0
    2.6287    1.0682    1.1557 H   0  0  0  0  0  0  0  0  0  0  0  0
    1.0623    0.9193    1.9433 H   0  0  0  0  0  0  0  0  0  0  0  0
   -0.8126    0.9794    0.8738 H   0  0  0  0  0  0  0  0  0  0  0  0
   -2.7151    1.3040   -0.6908 H   0  0  0  0  0  0  0  0  0  0  0  0
   -1.1669    1.3996   -1.5438 H   0  0  0  0  0  0  0  0  0  0  0  0
   -2.1435   -0.0644   -1.6615 H   0  0  0  0  0  0  0  0  0  0  0  0
   -2.9436   -0.2084    1.3401 H   0  0  0  0  0  0  0  0  0  0  0  0
   -1.5522   -1.1566    1.8881 H   0  0  0  0  0  0  0  0  0  0  0  0
   -2.3748   -1.5920    0.3896 H   0  0  0  0  0  0  0  0  0  0  0  0
  1  2  1  0  0  0  0
  2  3  1  0  0  0  0
  2  4  1  0  0  0  0
  4  5  1  0  0  0  0
  5  6  1  0  0  0  0
  5  7  1  0  0  0  0
  1  8  1  0  0  0  0
  1  9  1  0  0  0  0
  1 10  1  0  0  0  0
  2 11  1  0  0  0  0
  3 12  1  0  0  0  0
  3 13  1  0  0  0  0
  3 14  1  0  0  0  0
  5 15  1  0  0  0  0
  6 16  1  0  0  0  0
  6 17  1  0  0  0  0
  6 18  1  0  0  0  0
  7 19  1  0  0  0  0
  7 20  1  0  0  0  0
  7 21  1  0  0  0  0
M  END
