 xtb: 6.7.1 (edcfbbe)
          04112511493D

 12 11  0     0  0            999 V2000
   -1.4135    0.3777    1.7150 C   0  0  0  0  0  0  0  0  0  0  0  0
   -1.5111   -0.4651    0.5471 O   0  0  0  0  0  0  0  0  0  0  0  0
   -0.8163   -0.1266   -0.5342 C   0  0  0  0  0  0  0  0  0  0  0  0
    0.7241   -0.0286   -0.4508 C   0  0  0  0  0  0  0  0  0  0  0  0
    1.2393    1.5026    0.2688 Cl  0  0  0  0  0  0  0  0  0  0  0  0
    1.3159   -1.4109    0.4861 Cl  0  0  0  0  0  0  0  0  0  0  0  0
   -1.1029   -1.0589   -1.4837 F   0  0  0  0  0  0  0  0  0  0  0  0
   -1.2766    1.0537   -1.0884 F   0  0  0  0  0  0  0  0  0  0  0  0
   -1.5866    1.4195    1.4465 H   0  0  0  0  0  0  0  0  0  0  0  0
   -0.4424    0.2572    2.1937 H   0  0  0  0  0  0  0  0  0  0  0  0
   -2.2042    0.0154    2.3646 H   0  0  0  0  0  0  0  0  0  0  0  0
    1.1365   -0.0865   -1.4613 H   0  0  0  0  0  0  0  0  0  0  0  0
  1  2  1  0  0  0  0
  2  3  1  0  0  0  0
  3  4  1  0  0  0  0
  4  5  1  0  0  0  0
  4  6  1  0  0  0  0
  3  7  1  0  0  0  0
  3  8  1  0  0  0  0
  1  9  1  0  0  0  0
  1 10  1  0  0  0  0
  1 11  1  0  0  0  0
  4 12  1  0  0  0  0
M  END
