 xtb: 6.7.1 (edcfbbe)
          04112511193D

 14 13  0     0  0            999 V2000
   -1.3586   -0.4151   -0.3552 C   0  0  0  0  0  0  0  0  0  0  0  0
    0.0011   -0.0361    0.2598 C   0  0  0  0  0  0  0  0  0  0  0  0
    1.1232   -0.8374   -0.4258 C   0  0  0  0  0  0  0  0  0  0  0  0
    2.4069   -0.4979    0.0367 O   0  0  0  0  0  0  0  0  0  0  0  0
    0.2362    1.3511    0.2144 O   0  0  0  0  0  0  0  0  0  0  0  0
   -2.4319    0.3171    0.1824 O   0  0  0  0  0  0  0  0  0  0  0  0
   -1.5202   -1.4937   -0.2279 H   0  0  0  0  0  0  0  0  0  0  0  0
   -1.3595   -0.1870   -1.4239 H   0  0  0  0  0  0  0  0  0  0  0  0
   -0.0085   -0.2697    1.3319 H   0  0  0  0  0  0  0  0  0  0  0  0
    1.1345   -0.6188   -1.4964 H   0  0  0  0  0  0  0  0  0  0  0  0
    0.9306   -1.9098   -0.2902 H   0  0  0  0  0  0  0  0  0  0  0  0
    2.4454   -0.6044    0.9974 H   0  0  0  0  0  0  0  0  0  0  0  0
    0.2643    1.6467   -0.7061 H   0  0  0  0  0  0  0  0  0  0  0  0
   -2.4454    0.2145    1.1441 H   0  0  0  0  0  0  0  0  0  0  0  0
  1  2  1  0  0  0  0
  2  3  1  0  0  0  0
  3  4  1  0  0  0  0
  2  5  1  0  0  0  0
  1  6  1  0  0  0  0
  1  7  1  0  0  0  0
  1  8  1  0  0  0  0
  2  9  1  0  0  0  0
  3 10  1  0  0  0  0
  3 11  1  0  0  0  0
  4 12  1  0  0  0  0
  5 13  1  0  0  0  0
  6 14  1  0  0  0  0
M  END
