 xtb: 6.7.1 (edcfbbe)
          04072505513D

 15 14  0     0  0            999 V2000
    2.8090   -0.4447    0.1555 C   0  0  0  0  0  0  0  0  0  0  0  0
    1.4057   -0.2745   -0.4120 C   0  0  0  0  0  0  0  0  0  0  0  0
    0.6334    0.8256    0.3122 C   0  0  0  0  0  0  0  0  0  0  0  0
   -0.7788    0.9973   -0.2238 C   0  0  0  0  0  0  0  0  0  0  0  0
   -1.8296   -0.4821    0.0325 S   0  0  0  0  0  0  0  0  0  0  0  0
    3.3404   -1.2306   -0.3751 H   0  0  0  0  0  0  0  0  0  0  0  0
    2.7649   -0.7109    1.2091 H   0  0  0  0  0  0  0  0  0  0  0  0
    3.3744    0.4795    0.0582 H   0  0  0  0  0  0  0  0  0  0  0  0
    0.8584   -1.2157   -0.3217 H   0  0  0  0  0  0  0  0  0  0  0  0
    1.4682   -0.0297   -1.4751 H   0  0  0  0  0  0  0  0  0  0  0  0
    1.1566    1.7774    0.1915 H   0  0  0  0  0  0  0  0  0  0  0  0
    0.5935    0.5986    1.3801 H   0  0  0  0  0  0  0  0  0  0  0  0
   -1.2865    1.8388    0.2459 H   0  0  0  0  0  0  0  0  0  0  0  0
   -0.7736    1.1405   -1.3042 H   0  0  0  0  0  0  0  0  0  0  0  0
   -1.7830   -0.4652    1.3592 H   0  0  0  0  0  0  0  0  0  0  0  0
  1  2  1  0  0  0  0
  2  3  1  0  0  0  0
  3  4  1  0  0  0  0
  4  5  1  0  0  0  0
  1  6  1  0  0  0  0
  1  7  1  0  0  0  0
  1  8  1  0  0  0  0
  2  9  1  0  0  0  0
  2 10  1  0  0  0  0
  3 11  1  0  0  0  0
  3 12  1  0  0  0  0
  4 13  1  0  0  0  0
  4 14  1  0  0  0  0
  5 15  1  0  0  0  0
M  END
