 xtb: 6.7.1 (edcfbbe)
          04112511403D

 22 23  0     0  0            999 V2000
   -3.2673    0.9199   -0.1176 C   0  0  0  0  0  0  0  0  0  0  0  0
   -2.2904    1.2321    0.8136 C   0  0  0  0  0  0  0  0  0  0  0  0
   -1.1401    0.4683    0.8944 C   0  0  0  0  0  0  0  0  0  0  0  0
   -0.9520   -0.6124    0.0414 C   0  0  0  0  0  0  0  0  0  0  0  0
   -1.9322   -0.9168   -0.8925 C   0  0  0  0  0  0  0  0  0  0  0  0
   -3.0868   -0.1565   -0.9689 C   0  0  0  0  0  0  0  0  0  0  0  0
    0.3115   -1.4365    0.1316 C   0  0  0  0  0  0  0  0  0  0  0  0
    1.4867   -0.6016    0.0807 N   0  0  0  0  0  0  0  0  0  0  0  0
    2.2843   -0.2390    1.1263 C   0  0  0  0  0  0  0  0  0  0  0  0
    3.2206    0.6108    0.6123 C   0  0  0  0  0  0  0  0  0  0  0  0
    3.0099    0.7827   -0.7215 N   0  0  0  0  0  0  0  0  0  0  0  0
    1.9642    0.0479   -1.0019 C   0  0  0  0  0  0  0  0  0  0  0  0
   -4.1652    1.5154   -0.1797 H   0  0  0  0  0  0  0  0  0  0  0  0
   -2.4249    2.0713    1.4791 H   0  0  0  0  0  0  0  0  0  0  0  0
   -0.3789    0.7173    1.6199 H   0  0  0  0  0  0  0  0  0  0  0  0
   -1.7943   -1.7532   -1.5617 H   0  0  0  0  0  0  0  0  0  0  0  0
   -3.8439   -0.4028   -1.6978 H   0  0  0  0  0  0  0  0  0  0  0  0
    0.3309   -1.9878    1.0759 H   0  0  0  0  0  0  0  0  0  0  0  0
    0.3480   -2.1522   -0.6939 H   0  0  0  0  0  0  0  0  0  0  0  0
    2.1340   -0.6123    2.1179 H   0  0  0  0  0  0  0  0  0  0  0  0
    4.0296    1.1076    1.1089 H   0  0  0  0  0  0  0  0  0  0  0  0
    1.5279   -0.0405   -1.9764 H   0  0  0  0  0  0  0  0  0  0  0  0
  1  2  4  0  0  0  0
  2  3  4  0  0  0  0
  3  4  4  0  0  0  0
  4  5  4  0  0  0  0
  1  6  4  0  0  0  0
  5  6  4  0  0  0  0
  4  7  1  0  0  0  0
  7  8  1  0  0  0  0
  8  9  4  0  0  0  0
  9 10  2  0  0  0  0
 10 11  4  0  0  0  0
  8 12  4  0  0  0  0
 11 12  2  0  0  0  0
  1 13  1  0  0  0  0
  2 14  1  0  0  0  0
  3 15  1  0  0  0  0
  5 16  1  0  0  0  0
  6 17  1  0  0  0  0
  7 18  1  0  0  0  0
  7 19  1  0  0  0  0
  9 20  1  0  0  0  0
 10 21  1  0  0  0  0
 12 22  1  0  0  0  0
M  END
