 xtb: 6.7.1 (edcfbbe)
          04112511193D

 23 23  0     0  0            999 V2000
   -0.4867    1.9094   -1.2260 C   0  0  0  0  0  0  0  0  0  0  0  0
   -0.1344    0.5087   -1.0872 N   0  0  0  0  0  0  0  0  0  0  0  0
   -1.2677   -0.3557   -0.9497 C   0  0  0  0  0  0  0  0  0  0  0  0
   -2.0426   -0.1929    0.3725 C   0  0  0  0  0  0  0  0  0  0  0  0
   -2.6003   -1.3515    0.7801 F   0  0  0  0  0  0  0  0  0  0  0  0
   -1.2897    0.2404    1.3948 F   0  0  0  0  0  0  0  0  0  0  0  0
   -3.0612    0.6851    0.2717 F   0  0  0  0  0  0  0  0  0  0  0  0
    1.0931    0.1385   -0.5338 C   0  0  0  0  0  0  0  0  0  0  0  0
    2.2496    0.8632   -0.8411 C   0  0  0  0  0  0  0  0  0  0  0  0
    3.4847    0.4745   -0.3631 C   0  0  0  0  0  0  0  0  0  0  0  0
    3.6141   -0.6519    0.4320 C   0  0  0  0  0  0  0  0  0  0  0  0
    2.4812   -1.3823    0.7393 C   0  0  0  0  0  0  0  0  0  0  0  0
    1.2391   -0.9967    0.2686 C   0  0  0  0  0  0  0  0  0  0  0  0
   -0.8537    2.3342   -0.2841 H   0  0  0  0  0  0  0  0  0  0  0  0
   -1.2682    2.0010   -1.9792 H   0  0  0  0  0  0  0  0  0  0  0  0
    0.3695    2.4886   -1.5506 H   0  0  0  0  0  0  0  0  0  0  0  0
   -1.9831   -0.1375   -1.7498 H   0  0  0  0  0  0  0  0  0  0  0  0
   -0.9611   -1.4000   -1.0327 H   0  0  0  0  0  0  0  0  0  0  0  0
    2.1964    1.7320   -1.4758 H   0  0  0  0  0  0  0  0  0  0  0  0
    4.3571    1.0561   -0.6209 H   0  0  0  0  0  0  0  0  0  0  0  0
    4.5801   -0.9537    0.8053 H   0  0  0  0  0  0  0  0  0  0  0  0
    2.5559   -2.2618    1.3617 H   0  0  0  0  0  0  0  0  0  0  0  0
    0.3870   -1.5904    0.5609 H   0  0  0  0  0  0  0  0  0  0  0  0
  1  2  1  0  0  0  0
  2  3  1  0  0  0  0
  3  4  1  0  0  0  0
  4  5  1  0  0  0  0
  4  6  1  0  0  0  0
  4  7  1  0  0  0  0
  2  8  1  0  0  0  0
  8  9  4  0  0  0  0
  9 10  4  0  0  0  0
 10 11  4  0  0  0  0
 11 12  4  0  0  0  0
  8 13  4  0  0  0  0
 12 13  4  0  0  0  0
  1 14  1  0  0  0  0
  1 15  1  0  0  0  0
  1 16  1  0  0  0  0
  3 17  1  0  0  0  0
  3 18  1  0  0  0  0
  9 19  1  0  0  0  0
 10 20  1  0  0  0  0
 11 21  1  0  0  0  0
 12 22  1  0  0  0  0
 13 23  1  0  0  0  0
M  END
