 xtb: 6.7.1 (edcfbbe)
          04112511493D

 21 20  0     0  0            999 V2000
    1.7115    1.1869   -0.6258 C   0  0  0  0  0  0  0  0  0  0  0  0
    1.4427   -0.2504   -0.1927 C   0  0  0  0  0  0  0  0  0  0  0  0
    2.1668   -0.9057   -0.7077 H   0  0  0  0  0  0  0  0  0  0  0  0
    0.0310   -0.7469   -0.5495 C   0  0  0  0  0  0  0  0  0  0  0  0
   -1.1037    0.0193    0.1529 C   0  0  0  0  0  0  0  0  0  0  0  0
   -1.7258    1.0716   -0.7639 C   0  0  0  0  0  0  0  0  0  0  0  0
   -2.1938   -0.9437    0.6246 C   0  0  0  0  0  0  0  0  0  0  0  0
    1.6813   -0.3128    1.2053 O   0  0  0  0  0  0  0  0  0  0  0  0
    1.0795    1.8679   -0.0639 H   0  0  0  0  0  0  0  0  0  0  0  0
    2.7482    1.4376   -0.4163 H   0  0  0  0  0  0  0  0  0  0  0  0
    1.5241    1.3002   -1.6888 H   0  0  0  0  0  0  0  0  0  0  0  0
   -0.0894   -0.6899   -1.6318 H   0  0  0  0  0  0  0  0  0  0  0  0
   -0.0254   -1.8022   -0.2707 H   0  0  0  0  0  0  0  0  0  0  0  0
   -0.6822    0.5171    1.0334 H   0  0  0  0  0  0  0  0  0  0  0  0
   -2.4845    1.6373   -0.2276 H   0  0  0  0  0  0  0  0  0  0  0  0
   -2.1995    0.5897   -1.6171 H   0  0  0  0  0  0  0  0  0  0  0  0
   -0.9790    1.7673   -1.1338 H   0  0  0  0  0  0  0  0  0  0  0  0
   -1.7973   -1.6674    1.3327 H   0  0  0  0  0  0  0  0  0  0  0  0
   -2.9963   -0.3957    1.1131 H   0  0  0  0  0  0  0  0  0  0  0  0
   -2.6136   -1.4823   -0.2227 H   0  0  0  0  0  0  0  0  0  0  0  0
    1.5645   -1.2227    1.5078 H   0  0  0  0  0  0  0  0  0  0  0  0
  1  2  1  0  0  0  0
  2  3  1  0  0  0  0
  2  4  1  0  0  0  0
  4  5  1  0  0  0  0
  5  6  1  0  0  0  0
  5  7  1  0  0  0  0
  2  8  1  0  0  0  0
  1  9  1  0  0  0  0
  1 10  1  0  0  0  0
  1 11  1  0  0  0  0
  4 12  1  0  0  0  0
  4 13  1  0  0  0  0
  5 14  1  0  0  0  0
  6 15  1  0  0  0  0
  6 16  1  0  0  0  0
  6 17  1  0  0  0  0
  7 18  1  0  0  0  0
  7 19  1  0  0  0  0
  7 20  1  0  0  0  0
  8 21  1  0  0  0  0
M  END
