 xtb: 6.7.1 (edcfbbe)
          04112511223D

 15 14  0     0  0            999 V2000
    2.4181   -0.3062   -0.2614 C   0  0  0  0  0  0  0  0  0  0  0  0
    1.0973   -0.1323    0.4781 C   0  0  0  0  0  0  0  0  0  0  0  0
   -0.0360    0.2637   -0.4740 C   0  0  0  0  0  0  0  0  0  0  0  0
   -1.3235    0.4556    0.2609 C   0  0  0  0  0  0  0  0  0  0  0  0
   -2.4287   -0.2287    0.0322 C   0  0  0  0  0  0  0  0  0  0  0  0
    3.2072   -0.5905    0.4305 H   0  0  0  0  0  0  0  0  0  0  0  0
    2.7065    0.6219   -0.7501 H   0  0  0  0  0  0  0  0  0  0  0  0
    2.3308   -1.0803   -1.0204 H   0  0  0  0  0  0  0  0  0  0  0  0
    0.8316   -1.0661    0.9787 H   0  0  0  0  0  0  0  0  0  0  0  0
    1.2073    0.6365    1.2461 H   0  0  0  0  0  0  0  0  0  0  0  0
   -0.1567   -0.5047   -1.2398 H   0  0  0  0  0  0  0  0  0  0  0  0
    0.2347    1.2001   -0.9706 H   0  0  0  0  0  0  0  0  0  0  0  0
   -1.3024    1.2099    1.0376 H   0  0  0  0  0  0  0  0  0  0  0  0
   -3.3327   -0.0606    0.5925 H   0  0  0  0  0  0  0  0  0  0  0  0
   -2.4756   -0.9882   -0.7311 H   0  0  0  0  0  0  0  0  0  0  0  0
  1  2  1  0  0  0  0
  2  3  1  0  0  0  0
  3  4  1  0  0  0  0
  4  5  2  0  0  0  0
  1  6  1  0  0  0  0
  1  7  1  0  0  0  0
  1  8  1  0  0  0  0
  2  9  1  0  0  0  0
  2 10  1  0  0  0  0
  3 11  1  0  0  0  0
  3 12  1  0  0  0  0
  4 13  1  0  0  0  0
  5 14  1  0  0  0  0
  5 15  1  0  0  0  0
M  END
