 xtb: 6.7.1 (edcfbbe)
          04112511403D

 22 23  0     0  0            999 V2000
   -3.3211    0.8072    0.2154 C   0  0  0  0  0  0  0  0  0  0  0  0
   -2.6777    0.3175    1.3400 C   0  0  0  0  0  0  0  0  0  0  0  0
   -1.5013   -0.3995    1.2092 C   0  0  0  0  0  0  0  0  0  0  0  0
   -0.9577   -0.6346   -0.0476 C   0  0  0  0  0  0  0  0  0  0  0  0
   -1.6090   -0.1414   -1.1714 C   0  0  0  0  0  0  0  0  0  0  0  0
   -2.7854    0.5758   -1.0406 C   0  0  0  0  0  0  0  0  0  0  0  0
    0.3401   -1.3829   -0.1878 C   0  0  0  0  0  0  0  0  0  0  0  0
    1.4788   -0.4861   -0.1096 N   0  0  0  0  0  0  0  0  0  0  0  0
    1.4724    0.8746   -0.0167 C   0  0  0  0  0  0  0  0  0  0  0  0
    2.7829    1.2573    0.0171 C   0  0  0  0  0  0  0  0  0  0  0  0
    3.5901    0.1646   -0.0539 N   0  0  0  0  0  0  0  0  0  0  0  0
    2.7767   -0.8578   -0.1287 C   0  0  0  0  0  0  0  0  0  0  0  0
   -4.2379    1.3674    0.3176 H   0  0  0  0  0  0  0  0  0  0  0  0
   -3.0921    0.4952    2.3207 H   0  0  0  0  0  0  0  0  0  0  0  0
   -0.9991   -0.7767    2.0879 H   0  0  0  0  0  0  0  0  0  0  0  0
   -1.1907   -0.3171   -2.1517 H   0  0  0  0  0  0  0  0  0  0  0  0
   -3.2834    0.9553   -1.9198 H   0  0  0  0  0  0  0  0  0  0  0  0
    0.4358   -2.1269    0.6095 H   0  0  0  0  0  0  0  0  0  0  0  0
    0.3737   -1.9011   -1.1520 H   0  0  0  0  0  0  0  0  0  0  0  0
    0.5688    1.4457    0.0190 H   0  0  0  0  0  0  0  0  0  0  0  0
    3.1961    2.2433    0.0877 H   0  0  0  0  0  0  0  0  0  0  0  0
    3.0926   -1.8792   -0.1977 H   0  0  0  0  0  0  0  0  0  0  0  0
  1  2  4  0  0  0  0
  2  3  4  0  0  0  0
  3  4  4  0  0  0  0
  4  5  4  0  0  0  0
  1  6  4  0  0  0  0
  5  6  4  0  0  0  0
  4  7  1  0  0  0  0
  7  8  1  0  0  0  0
  8  9  4  0  0  0  0
  9 10  2  0  0  0  0
 10 11  4  0  0  0  0
  8 12  4  0  0  0  0
 11 12  2  0  0  0  0
  1 13  1  0  0  0  0
  2 14  1  0  0  0  0
  3 15  1  0  0  0  0
  5 16  1  0  0  0  0
  6 17  1  0  0  0  0
  7 18  1  0  0  0  0
  7 19  1  0  0  0  0
  9 20  1  0  0  0  0
 10 21  1  0  0  0  0
 12 22  1  0  0  0  0
M  END
