 xtb: 6.7.1 (edcfbbe)
          04112511243D

 20 19  0     0  0            999 V2000
   -0.0769   -2.5466   -0.0242 C   0  0  0  0  0  0  0  0  0  0  0  0
   -0.0155   -1.0377   -0.1612 C   0  0  0  0  0  0  0  0  0  0  0  0
    1.0711   -0.5505    0.6145 O   0  0  0  0  0  0  0  0  0  0  0  0
    1.8654    0.4172    0.1245 C   0  0  0  0  0  0  0  0  0  0  0  0
    1.7399    0.8804   -0.9850 O   0  0  0  0  0  0  0  0  0  0  0  0
    2.9036    0.8117    1.1240 C   0  0  0  0  0  0  0  0  0  0  0  0
   -1.2038   -0.4781    0.3809 O   0  0  0  0  0  0  0  0  0  0  0  0
   -1.8237    0.5297   -0.2576 C   0  0  0  0  0  0  0  0  0  0  0  0
   -1.4551    0.9671   -1.3225 O   0  0  0  0  0  0  0  0  0  0  0  0
   -3.0075    1.0048    0.5204 C   0  0  0  0  0  0  0  0  0  0  0  0
   -0.9227   -2.9248   -0.5886 H   0  0  0  0  0  0  0  0  0  0  0  0
   -0.1940   -2.7979    1.0255 H   0  0  0  0  0  0  0  0  0  0  0  0
    0.8420   -2.9797   -0.4048 H   0  0  0  0  0  0  0  0  0  0  0  0
    0.1020   -0.6978   -1.2013 H   0  0  0  0  0  0  0  0  0  0  0  0
    3.8699    0.8716    0.6314 H   0  0  0  0  0  0  0  0  0  0  0  0
    2.6602    1.8023    1.5022 H   0  0  0  0  0  0  0  0  0  0  0  0
    2.9210    0.0992    1.9411 H   0  0  0  0  0  0  0  0  0  0  0  0
   -3.2895    0.2604    1.2568 H   0  0  0  0  0  0  0  0  0  0  0  0
   -2.7369    1.9301    1.0250 H   0  0  0  0  0  0  0  0  0  0  0  0
   -3.8245    1.2199   -0.1617 H   0  0  0  0  0  0  0  0  0  0  0  0
  1  2  1  0  0  0  0
  2  3  1  0  0  0  0
  3  4  1  0  0  0  0
  4  5  2  0  0  0  0
  4  6  1  0  0  0  0
  2  7  1  0  0  0  0
  7  8  1  0  0  0  0
  8  9  2  0  0  0  0
  8 10  1  0  0  0  0
  1 11  1  0  0  0  0
  1 12  1  0  0  0  0
  1 13  1  0  0  0  0
  2 14  1  0  0  0  0
  6 15  1  0  0  0  0
  6 16  1  0  0  0  0
  6 17  1  0  0  0  0
 10 18  1  0  0  0  0
 10 19  1  0  0  0  0
 10 20  1  0  0  0  0
M  END
