 xtb: 6.7.1 (edcfbbe)
          04112512193D

 17 16  0     0  0            999 V2000
   -2.5439    0.6982   -0.6556 C   0  0  0  0  0  0  0  0  0  0  0  0
   -1.7497    0.3580    0.6074 C   0  0  0  0  0  0  0  0  0  0  0  0
   -0.5048   -0.4072    0.2364 C   0  0  0  0  0  0  0  0  0  0  0  0
   -0.4983   -1.5242   -0.2401 O   0  0  0  0  0  0  0  0  0  0  0  0
    0.5898    0.2986    0.4762 O   0  0  0  0  0  0  0  0  0  0  0  0
    1.8750   -0.2552    0.1425 C   0  0  0  0  0  0  0  0  0  0  0  0
    2.7312    0.8292   -0.4876 C   0  0  0  0  0  0  0  0  0  0  0  0
   -3.4749    1.1869   -0.3855 H   0  0  0  0  0  0  0  0  0  0  0  0
   -1.9717    1.3634   -1.2973 H   0  0  0  0  0  0  0  0  0  0  0  0
   -2.7683   -0.2108   -1.2085 H   0  0  0  0  0  0  0  0  0  0  0  0
   -2.3544   -0.2770    1.2557 H   0  0  0  0  0  0  0  0  0  0  0  0
   -1.4603    1.2628    1.1393 H   0  0  0  0  0  0  0  0  0  0  0  0
    2.3207   -0.6176    1.0732 H   0  0  0  0  0  0  0  0  0  0  0  0
    1.7228   -1.1009   -0.5354 H   0  0  0  0  0  0  0  0  0  0  0  0
    2.8267    1.6684    0.1950 H   0  0  0  0  0  0  0  0  0  0  0  0
    3.7160    0.4276   -0.7026 H   0  0  0  0  0  0  0  0  0  0  0  0
    2.2795    1.1780   -1.4121 H   0  0  0  0  0  0  0  0  0  0  0  0
  1  2  1  0  0  0  0
  2  3  1  0  0  0  0
  3  4  2  0  0  0  0
  3  5  1  0  0  0  0
  5  6  1  0  0  0  0
  6  7  1  0  0  0  0
  1  8  1  0  0  0  0
  1  9  1  0  0  0  0
  1 10  1  0  0  0  0
  2 11  1  0  0  0  0
  2 12  1  0  0  0  0
  6 13  1  0  0  0  0
  6 14  1  0  0  0  0
  7 15  1  0  0  0  0
  7 16  1  0  0  0  0
  7 17  1  0  0  0  0
M  END
