 xtb: 6.7.1 (edcfbbe)
          04112511583D

 18 17  0     0  0            999 V2000
   -2.5368    0.1021    0.2832 C   0  0  0  0  0  0  0  0  0  0  0  0
   -1.2636    0.6986   -0.3058 C   0  0  0  0  0  0  0  0  0  0  0  0
    0.0001   -0.0023    0.2129 C   0  0  0  0  0  0  0  0  0  0  0  0
    1.2636    0.6983   -0.3064 C   0  0  0  0  0  0  0  0  0  0  0  0
    2.5368    0.1029    0.2836 C   0  0  0  0  0  0  0  0  0  0  0  0
   -0.0000   -1.3604   -0.2208 O   0  0  0  0  0  0  0  0  0  0  0  0
   -3.4102    0.6161   -0.1091 H   0  0  0  0  0  0  0  0  0  0  0  0
   -2.6105   -0.9506    0.0222 H   0  0  0  0  0  0  0  0  0  0  0  0
   -2.5377    0.1963    1.3671 H   0  0  0  0  0  0  0  0  0  0  0  0
   -1.2836    0.5998   -1.3924 H   0  0  0  0  0  0  0  0  0  0  0  0
   -1.2012    1.7586   -0.0569 H   0  0  0  0  0  0  0  0  0  0  0  0
    0.0003    0.0400    1.3095 H   0  0  0  0  0  0  0  0  0  0  0  0
    1.2838    0.5981   -1.3929 H   0  0  0  0  0  0  0  0  0  0  0  0
    1.2009    1.7587   -0.0588 H   0  0  0  0  0  0  0  0  0  0  0  0
    2.6107   -0.9502    0.0242 H   0  0  0  0  0  0  0  0  0  0  0  0
    3.4102    0.6165   -0.1095 H   0  0  0  0  0  0  0  0  0  0  0  0
    2.5377    0.1988    1.3673 H   0  0  0  0  0  0  0  0  0  0  0  0
   -0.0008   -1.9513    0.5390 H   0  0  0  0  0  0  0  0  0  0  0  0
  1  2  1  0  0  0  0
  2  3  1  0  0  0  0
  3  4  1  0  0  0  0
  4  5  1  0  0  0  0
  3  6  1  0  0  0  0
  1  7  1  0  0  0  0
  1  8  1  0  0  0  0
  1  9  1  0  0  0  0
  2 10  1  0  0  0  0
  2 11  1  0  0  0  0
  3 12  1  0  0  0  0
  4 13  1  0  0  0  0
  4 14  1  0  0  0  0
  5 15  1  0  0  0  0
  5 16  1  0  0  0  0
  5 17  1  0  0  0  0
  6 18  1  0  0  0  0
M  END
