 xtb: 6.7.1 (edcfbbe)
          04112511203D

 21 20  0     0  0            999 V2000
   -2.2322    1.0816    0.3113 C   0  0  0  0  0  0  0  0  0  0  0  0
   -1.8314   -0.3663    0.0555 C   0  0  0  0  0  0  0  0  0  0  0  0
   -0.5558   -0.5478   -0.7736 C   0  0  0  0  0  0  0  0  0  0  0  0
    0.7775   -0.1465   -0.0899 C   0  0  0  0  0  0  0  0  0  0  0  0
    1.0996    1.3367   -0.2917 C   0  0  0  0  0  0  0  0  0  0  0  0
    1.9135   -0.9802   -0.7013 C   0  0  0  0  0  0  0  0  0  0  0  0
    0.7278   -0.3604    1.3166 O   0  0  0  0  0  0  0  0  0  0  0  0
   -3.2375    1.1195    0.7257 H   0  0  0  0  0  0  0  0  0  0  0  0
   -2.2194    1.6553   -0.6127 H   0  0  0  0  0  0  0  0  0  0  0  0
   -1.5587    1.5454    1.0265 H   0  0  0  0  0  0  0  0  0  0  0  0
   -1.7160   -0.8720    1.0156 H   0  0  0  0  0  0  0  0  0  0  0  0
   -2.6411   -0.8633   -0.4849 H   0  0  0  0  0  0  0  0  0  0  0  0
   -0.4938   -1.6066   -1.0390 H   0  0  0  0  0  0  0  0  0  0  0  0
   -0.6462    0.0174   -1.7021 H   0  0  0  0  0  0  0  0  0  0  0  0
    0.3312    1.9615    0.1481 H   0  0  0  0  0  0  0  0  0  0  0  0
    1.1809    1.5615   -1.3507 H   0  0  0  0  0  0  0  0  0  0  0  0
    2.0441    1.5673    0.1953 H   0  0  0  0  0  0  0  0  0  0  0  0
    1.7438   -2.0427   -0.5365 H   0  0  0  0  0  0  0  0  0  0  0  0
    2.8619   -0.7056   -0.2451 H   0  0  0  0  0  0  0  0  0  0  0  0
    1.9736   -0.8016   -1.7709 H   0  0  0  0  0  0  0  0  0  0  0  0
    0.7005   -1.3113    1.4855 H   0  0  0  0  0  0  0  0  0  0  0  0
  1  2  1  0  0  0  0
  2  3  1  0  0  0  0
  3  4  1  0  0  0  0
  4  5  1  0  0  0  0
  4  6  1  0  0  0  0
  4  7  1  0  0  0  0
  1  8  1  0  0  0  0
  1  9  1  0  0  0  0
  1 10  1  0  0  0  0
  2 11  1  0  0  0  0
  2 12  1  0  0  0  0
  3 13  1  0  0  0  0
  3 14  1  0  0  0  0
  5 15  1  0  0  0  0
  5 16  1  0  0  0  0
  5 17  1  0  0  0  0
  6 18  1  0  0  0  0
  6 19  1  0  0  0  0
  6 20  1  0  0  0  0
  7 21  1  0  0  0  0
M  END
