 xtb: 6.7.1 (edcfbbe)
          04112511413D

 15 14  0     0  0            999 V2000
   -2.1683    0.6495    0.5714 C   0  0  0  0  0  0  0  0  0  0  0  0
   -1.3428    0.2970   -0.6619 C   0  0  0  0  0  0  0  0  0  0  0  0
   -0.5421   -0.9959   -0.5014 C   0  0  0  0  0  0  0  0  0  0  0  0
    0.5820   -0.8863    0.5399 C   0  0  0  0  0  0  0  0  0  0  0  0
    1.5613    0.0920    0.1619 C   0  0  0  0  0  0  0  0  0  0  0  0
    2.3475    0.8670   -0.1460 N   0  0  0  0  0  0  0  0  0  0  0  0
   -2.8111   -0.1825    0.8502 H   0  0  0  0  0  0  0  0  0  0  0  0
   -1.5314    0.8976    1.4169 H   0  0  0  0  0  0  0  0  0  0  0  0
   -2.7960    1.5127    0.3651 H   0  0  0  0  0  0  0  0  0  0  0  0
   -2.0156    0.1781   -1.5137 H   0  0  0  0  0  0  0  0  0  0  0  0
   -0.6605    1.1189   -0.8928 H   0  0  0  0  0  0  0  0  0  0  0  0
   -0.1044   -1.2649   -1.4651 H   0  0  0  0  0  0  0  0  0  0  0  0
   -1.2122   -1.8014   -0.1968 H   0  0  0  0  0  0  0  0  0  0  0  0
    0.1761   -0.6071    1.5144 H   0  0  0  0  0  0  0  0  0  0  0  0
    1.0920   -1.8475    0.6410 H   0  0  0  0  0  0  0  0  0  0  0  0
  1  2  1  0  0  0  0
  2  3  1  0  0  0  0
  3  4  1  0  0  0  0
  4  5  1  0  0  0  0
  5  6  3  0  0  0  0
  1  7  1  0  0  0  0
  1  8  1  0  0  0  0
  1  9  1  0  0  0  0
  2 10  1  0  0  0  0
  2 11  1  0  0  0  0
  3 12  1  0  0  0  0
  3 13  1  0  0  0  0
  4 14  1  0  0  0  0
  4 15  1  0  0  0  0
M  END
