 xtb: 6.7.1 (edcfbbe)
          04112511443D

 15 14  0     0  0            999 V2000
   -2.2275   -0.8444    0.2310 C   0  0  0  0  0  0  0  0  0  0  0  0
   -1.5360    0.5018    0.3320 C   0  0  0  0  0  0  0  0  0  0  0  0
    0.0514    0.5636   -0.5733 S   0  0  0  0  0  0  0  0  0  0  0  0
    1.0938   -0.4888    0.5099 C   0  0  0  0  0  0  0  0  0  0  0  0
    2.5538   -0.3342    0.1313 C   0  0  0  0  0  0  0  0  0  0  0  0
   -3.2031   -0.7899    0.7084 H   0  0  0  0  0  0  0  0  0  0  0  0
   -2.3621   -1.1196   -0.8123 H   0  0  0  0  0  0  0  0  0  0  0  0
   -1.6452   -1.6192    0.7239 H   0  0  0  0  0  0  0  0  0  0  0  0
   -1.3295    0.7754    1.3668 H   0  0  0  0  0  0  0  0  0  0  0  0
   -2.1360    1.2838   -0.1315 H   0  0  0  0  0  0  0  0  0  0  0  0
    0.9151   -0.1632    1.5349 H   0  0  0  0  0  0  0  0  0  0  0  0
    0.7664   -1.5207    0.3858 H   0  0  0  0  0  0  0  0  0  0  0  0
    3.1693   -0.9575    0.7752 H   0  0  0  0  0  0  0  0  0  0  0  0
    2.7088   -0.6330   -0.9027 H   0  0  0  0  0  0  0  0  0  0  0  0
    2.8643    0.7023    0.2389 H   0  0  0  0  0  0  0  0  0  0  0  0
  1  2  1  0  0  0  0
  2  3  1  0  0  0  0
  3  4  1  0  0  0  0
  4  5  1  0  0  0  0
  1  6  1  0  0  0  0
  1  7  1  0  0  0  0
  1  8  1  0  0  0  0
  2  9  1  0  0  0  0
  2 10  1  0  0  0  0
  4 11  1  0  0  0  0
  4 12  1  0  0  0  0
  5 13  1  0  0  0  0
  5 14  1  0  0  0  0
  5 15  1  0  0  0  0
M  END
