 xtb: 6.7.1 (edcfbbe)
          04112510353D

 18 17  0     0  0            999 V2000
   -2.2069   -0.7929   -0.2345 C   0  0  0  0  0  0  0  0  0  0  0  0
   -1.4699    0.5415   -0.2264 C   0  0  0  0  0  0  0  0  0  0  0  0
   -0.2738    0.5811    0.7430 C   0  0  0  0  0  0  0  0  0  0  0  0
    1.0204    0.1425    0.1122 C   0  0  0  0  0  0  0  0  0  0  0  0
    1.9467    1.0233   -0.2350 C   0  0  0  0  0  0  0  0  0  0  0  0
    1.2091   -1.3263   -0.1183 C   0  0  0  0  0  0  0  0  0  0  0  0
   -1.5597   -1.6037   -0.5547 H   0  0  0  0  0  0  0  0  0  0  0  0
   -3.0554   -0.7470   -0.9138 H   0  0  0  0  0  0  0  0  0  0  0  0
   -2.5792   -1.0246    0.7612 H   0  0  0  0  0  0  0  0  0  0  0  0
   -1.1207    0.7783   -1.2338 H   0  0  0  0  0  0  0  0  0  0  0  0
   -2.1777    1.3201    0.0657 H   0  0  0  0  0  0  0  0  0  0  0  0
   -0.1496    1.6051    1.0999 H   0  0  0  0  0  0  0  0  0  0  0  0
   -0.4955   -0.0499    1.6064 H   0  0  0  0  0  0  0  0  0  0  0  0
    2.8748    0.7239   -0.6929 H   0  0  0  0  0  0  0  0  0  0  0  0
    1.8159    2.0811   -0.0791 H   0  0  0  0  0  0  0  0  0  0  0  0
    0.8924   -1.8953    0.7530 H   0  0  0  0  0  0  0  0  0  0  0  0
    0.6136   -1.6524   -0.9700 H   0  0  0  0  0  0  0  0  0  0  0  0
    2.2510   -1.5521   -0.3302 H   0  0  0  0  0  0  0  0  0  0  0  0
  1  2  1  0  0  0  0
  2  3  1  0  0  0  0
  3  4  1  0  0  0  0
  4  5  2  0  0  0  0
  4  6  1  0  0  0  0
  1  7  1  0  0  0  0
  1  8  1  0  0  0  0
  1  9  1  0  0  0  0
  2 10  1  0  0  0  0
  2 11  1  0  0  0  0
  3 12  1  0  0  0  0
  3 13  1  0  0  0  0
  5 14  1  0  0  0  0
  5 15  1  0  0  0  0
  6 16  1  0  0  0  0
  6 17  1  0  0  0  0
  6 18  1  0  0  0  0
M  END
