 xtb: 6.7.1 (edcfbbe)
          04112511143D

 17 16  0     0  0            999 V2000
    1.6977    1.2750   -0.1235 C   0  0  0  0  0  0  0  0  0  0  0  0
    1.4434   -0.2106    0.1236 C   0  0  0  0  0  0  0  0  0  0  0  0
    1.4510   -0.9975   -1.1854 C   0  0  0  0  0  0  0  0  0  0  0  0
    0.1620   -0.4500    0.9324 C   0  0  0  0  0  0  0  0  0  0  0  0
   -1.1621   -0.0381    0.3432 C   0  0  0  0  0  0  0  0  0  0  0  0
   -2.2107   -0.2135    0.9359 O   0  0  0  0  0  0  0  0  0  0  0  0
   -1.1289    0.5248   -0.8492 O   0  0  0  0  0  0  0  0  0  0  0  0
    2.6677    1.4118   -0.5945 H   0  0  0  0  0  0  0  0  0  0  0  0
    1.6915    1.8252    0.8145 H   0  0  0  0  0  0  0  0  0  0  0  0
    0.9379    1.6922   -0.7771 H   0  0  0  0  0  0  0  0  0  0  0  0
    2.2615   -0.5906    0.7469 H   0  0  0  0  0  0  0  0  0  0  0  0
    1.2690   -2.0534   -0.9979 H   0  0  0  0  0  0  0  0  0  0  0  0
    0.6869   -0.6271   -1.8620 H   0  0  0  0  0  0  0  0  0  0  0  0
    2.4177   -0.8978   -1.6723 H   0  0  0  0  0  0  0  0  0  0  0  0
    0.2310    0.0659    1.8941 H   0  0  0  0  0  0  0  0  0  0  0  0
    0.0646   -1.5143    1.1640 H   0  0  0  0  0  0  0  0  0  0  0  0
   -2.0207    0.7662   -1.1674 H   0  0  0  0  0  0  0  0  0  0  0  0
  1  2  1  0  0  0  0
  2  3  1  0  0  0  0
  2  4  1  0  0  0  0
  4  5  1  0  0  0  0
  5  6  2  0  0  0  0
  5  7  1  0  0  0  0
  1  8  1  0  0  0  0
  1  9  1  0  0  0  0
  1 10  1  0  0  0  0
  2 11  1  0  0  0  0
  3 12  1  0  0  0  0
  3 13  1  0  0  0  0
  3 14  1  0  0  0  0
  4 15  1  0  0  0  0
  4 16  1  0  0  0  0
  7 17  1  0  0  0  0
M  END
