 xtb: 6.7.1 (edcfbbe)
          04112511193D

 23 23  0     0  0            999 V2000
   -0.3444    2.4286    0.1096 C   0  0  0  0  0  0  0  0  0  0  0  0
   -0.1165    1.1668   -0.5720 N   0  0  0  0  0  0  0  0  0  0  0  0
   -1.2848    0.4786   -1.0296 C   0  0  0  0  0  0  0  0  0  0  0  0
   -1.9817   -0.3657    0.0630 C   0  0  0  0  0  0  0  0  0  0  0  0
   -3.2632    0.0087    0.2611 F   0  0  0  0  0  0  0  0  0  0  0  0
   -2.0341   -1.6784   -0.2374 F   0  0  0  0  0  0  0  0  0  0  0  0
   -1.3841   -0.2777    1.2592 F   0  0  0  0  0  0  0  0  0  0  0  0
    1.0473    0.4569   -0.2960 C   0  0  0  0  0  0  0  0  0  0  0  0
    1.2010   -0.8873   -0.6526 C   0  0  0  0  0  0  0  0  0  0  0  0
    2.3881   -1.5550   -0.4176 C   0  0  0  0  0  0  0  0  0  0  0  0
    3.4573   -0.9152    0.1832 C   0  0  0  0  0  0  0  0  0  0  0  0
    3.3165    0.4123    0.5478 C   0  0  0  0  0  0  0  0  0  0  0  0
    2.1354    1.0896    0.3160 C   0  0  0  0  0  0  0  0  0  0  0  0
    0.3853    3.1650   -0.2246 H   0  0  0  0  0  0  0  0  0  0  0  0
   -0.2788    2.3225    1.1966 H   0  0  0  0  0  0  0  0  0  0  0  0
   -1.3346    2.7979   -0.1426 H   0  0  0  0  0  0  0  0  0  0  0  0
   -2.0167    1.2076   -1.3852 H   0  0  0  0  0  0  0  0  0  0  0  0
   -1.0408   -0.1898   -1.8588 H   0  0  0  0  0  0  0  0  0  0  0  0
    0.3985   -1.4451   -1.1077 H   0  0  0  0  0  0  0  0  0  0  0  0
    2.4700   -2.5935   -0.7034 H   0  0  0  0  0  0  0  0  0  0  0  0
    4.3796   -1.4433    0.3691 H   0  0  0  0  0  0  0  0  0  0  0  0
    4.1359    0.9311    1.0230 H   0  0  0  0  0  0  0  0  0  0  0  0
    2.0706    2.1206    0.6172 H   0  0  0  0  0  0  0  0  0  0  0  0
  1  2  1  0  0  0  0
  2  3  1  0  0  0  0
  3  4  1  0  0  0  0
  4  5  1  0  0  0  0
  4  6  1  0  0  0  0
  4  7  1  0  0  0  0
  2  8  1  0  0  0  0
  8  9  4  0  0  0  0
  9 10  4  0  0  0  0
 10 11  4  0  0  0  0
 11 12  4  0  0  0  0
  8 13  4  0  0  0  0
 12 13  4  0  0  0  0
  1 14  1  0  0  0  0
  1 15  1  0  0  0  0
  1 16  1  0  0  0  0
  3 17  1  0  0  0  0
  3 18  1  0  0  0  0
  9 19  1  0  0  0  0
 10 20  1  0  0  0  0
 11 21  1  0  0  0  0
 12 22  1  0  0  0  0
 13 23  1  0  0  0  0
M  END
