 xtb: 6.7.1 (edcfbbe)
          04112512223D

 16 15  0     0  0            999 V2000
   -1.6660    0.8120   -0.3641 C   0  0  0  0  0  0  0  0  0  0  0  0
   -1.2999   -0.5623    0.1863 C   0  0  0  0  0  0  0  0  0  0  0  0
    0.0478   -0.5910    0.7303 N   0  0  0  0  0  0  0  0  0  0  0  0
    1.1215   -0.5261   -0.2577 C   0  0  0  0  0  0  0  0  0  0  0  0
    1.7928    0.8469   -0.2605 C   0  0  0  0  0  0  0  0  0  0  0  0
   -2.7195    0.8309   -0.6309 H   0  0  0  0  0  0  0  0  0  0  0  0
   -1.4770    1.5711    0.3893 H   0  0  0  0  0  0  0  0  0  0  0  0
   -1.0826    1.0424   -1.2512 H   0  0  0  0  0  0  0  0  0  0  0  0
   -1.4405   -1.3168   -0.6110 H   0  0  0  0  0  0  0  0  0  0  0  0
   -1.9811   -0.8089    1.0045 H   0  0  0  0  0  0  0  0  0  0  0  0
    0.1521   -1.4203    1.3007 H   0  0  0  0  0  0  0  0  0  0  0  0
    1.8799   -1.2779   -0.0200 H   0  0  0  0  0  0  0  0  0  0  0  0
    0.7392   -0.7515   -1.2641 H   0  0  0  0  0  0  0  0  0  0  0  0
    1.0808    1.6252   -0.5152 H   0  0  0  0  0  0  0  0  0  0  0  0
    2.1944    1.0599    0.7257 H   0  0  0  0  0  0  0  0  0  0  0  0
    2.6043    0.8601   -0.9837 H   0  0  0  0  0  0  0  0  0  0  0  0
  1  2  1  0  0  0  0
  2  3  1  0  0  0  0
  3  4  1  0  0  0  0
  4  5  1  0  0  0  0
  1  6  1  0  0  0  0
  1  7  1  0  0  0  0
  1  8  1  0  0  0  0
  2  9  1  0  0  0  0
  2 10  1  0  0  0  0
  3 11  1  0  0  0  0
  4 12  1  0  0  0  0
  4 13  1  0  0  0  0
  5 14  1  0  0  0  0
  5 15  1  0  0  0  0
  5 16  1  0  0  0  0
M  END
