 xtb: 6.7.1 (edcfbbe)
          04112512193D

 17 16  0     0  0            999 V2000
   -2.3443    0.9950   -0.5431 C   0  0  0  0  0  0  0  0  0  0  0  0
   -1.8044    0.1513    0.6158 C   0  0  0  0  0  0  0  0  0  0  0  0
   -0.5275   -0.5210    0.1819 C   0  0  0  0  0  0  0  0  0  0  0  0
   -0.4702   -1.5857   -0.4000 O   0  0  0  0  0  0  0  0  0  0  0  0
    0.5329    0.2126    0.4818 O   0  0  0  0  0  0  0  0  0  0  0  0
    1.8376   -0.2416    0.0810 C   0  0  0  0  0  0  0  0  0  0  0  0
    2.6664    0.9583   -0.3408 C   0  0  0  0  0  0  0  0  0  0  0  0
   -3.2840    1.4558   -0.2542 H   0  0  0  0  0  0  0  0  0  0  0  0
   -1.6353    1.7764   -0.8042 H   0  0  0  0  0  0  0  0  0  0  0  0
   -2.5136    0.3689   -1.4159 H   0  0  0  0  0  0  0  0  0  0  0  0
   -2.5273   -0.6193    0.8810 H   0  0  0  0  0  0  0  0  0  0  0  0
   -1.5952    0.7865    1.4750 H   0  0  0  0  0  0  0  0  0  0  0  0
    2.2849   -0.7466    0.9423 H   0  0  0  0  0  0  0  0  0  0  0  0
    1.7190   -0.9644   -0.7324 H   0  0  0  0  0  0  0  0  0  0  0  0
    3.6681    0.6290   -0.5966 H   0  0  0  0  0  0  0  0  0  0  0  0
    2.2194    1.4422   -1.2049 H   0  0  0  0  0  0  0  0  0  0  0  0
    2.7205    1.6746    0.4737 H   0  0  0  0  0  0  0  0  0  0  0  0
  1  2  1  0  0  0  0
  2  3  1  0  0  0  0
  3  4  2  0  0  0  0
  3  5  1  0  0  0  0
  5  6  1  0  0  0  0
  6  7  1  0  0  0  0
  1  8  1  0  0  0  0
  1  9  1  0  0  0  0
  1 10  1  0  0  0  0
  2 11  1  0  0  0  0
  2 12  1  0  0  0  0
  6 13  1  0  0  0  0
  6 14  1  0  0  0  0
  7 15  1  0  0  0  0
  7 16  1  0  0  0  0
  7 17  1  0  0  0  0
M  END
