 xtb: 6.7.1 (edcfbbe)
          04072505513D

 15 14  0     0  0            999 V2000
    2.8157   -0.4359   -0.0903 C   0  0  0  0  0  0  0  0  0  0  0  0
    1.3885   -0.3235    0.4298 C   0  0  0  0  0  0  0  0  0  0  0  0
    0.6420    0.8409   -0.2176 C   0  0  0  0  0  0  0  0  0  0  0  0
   -0.7800    0.9808    0.2988 C   0  0  0  0  0  0  0  0  0  0  0  0
   -1.7923   -0.4771   -0.1988 S   0  0  0  0  0  0  0  0  0  0  0  0
    3.3273   -1.2709    0.3813 H   0  0  0  0  0  0  0  0  0  0  0  0
    3.3713    0.4745    0.1229 H   0  0  0  0  0  0  0  0  0  0  0  0
    2.8172   -0.5953   -1.1663 H   0  0  0  0  0  0  0  0  0  0  0  0
    1.4042   -0.1833    1.5133 H   0  0  0  0  0  0  0  0  0  0  0  0
    0.8510   -1.2525    0.2231 H   0  0  0  0  0  0  0  0  0  0  0  0
    0.6184    0.6995   -1.3010 H   0  0  0  0  0  0  0  0  0  0  0  0
    1.1730    1.7734   -0.0110 H   0  0  0  0  0  0  0  0  0  0  0  0
   -0.7979    1.0314    1.3870 H   0  0  0  0  0  0  0  0  0  0  0  0
   -1.2611    1.8601   -0.1265 H   0  0  0  0  0  0  0  0  0  0  0  0
   -2.9374   -0.0172    0.2876 H   0  0  0  0  0  0  0  0  0  0  0  0
  1  2  1  0  0  0  0
  2  3  1  0  0  0  0
  3  4  1  0  0  0  0
  4  5  1  0  0  0  0
  1  6  1  0  0  0  0
  1  7  1  0  0  0  0
  1  8  1  0  0  0  0
  2  9  1  0  0  0  0
  2 10  1  0  0  0  0
  3 11  1  0  0  0  0
  3 12  1  0  0  0  0
  4 13  1  0  0  0  0
  4 14  1  0  0  0  0
  5 15  1  0  0  0  0
M  END
