 xtb: 6.7.1 (edcfbbe)
          04072507453D

 21 20  0     0  0            999 V2000
    1.4810   -0.5465   -1.1522 C   0  0  0  0  0  0  0  0  0  0  0  0
    1.0921   -0.1084    0.2621 C   0  0  0  0  0  0  0  0  0  0  0  0
    2.2238    0.7012    0.8959 C   0  0  0  0  0  0  0  0  0  0  0  0
   -0.0467    0.7491    0.2998 O   0  0  0  0  0  0  0  0  0  0  0  0
   -1.3630    0.2271    0.1310 C   0  0  0  0  0  0  0  0  0  0  0  0
   -1.7539    0.0395   -1.3393 C   0  0  0  0  0  0  0  0  0  0  0  0
   -1.6510   -1.0387    0.9383 C   0  0  0  0  0  0  0  0  0  0  0  0
    1.4950    0.3168   -1.8124 H   0  0  0  0  0  0  0  0  0  0  0  0
    2.4722   -0.9904   -1.1302 H   0  0  0  0  0  0  0  0  0  0  0  0
    0.7862   -1.2810   -1.5483 H   0  0  0  0  0  0  0  0  0  0  0  0
    0.9060   -0.9979    0.8802 H   0  0  0  0  0  0  0  0  0  0  0  0
    1.9236    1.0435    1.8824 H   0  0  0  0  0  0  0  0  0  0  0  0
    2.4375    1.5709    0.2808 H   0  0  0  0  0  0  0  0  0  0  0  0
    3.1176    0.0917    0.9836 H   0  0  0  0  0  0  0  0  0  0  0  0
   -1.9713    1.0461    0.5389 H   0  0  0  0  0  0  0  0  0  0  0  0
   -1.4043    0.8868   -1.9230 H   0  0  0  0  0  0  0  0  0  0  0  0
   -1.3304   -0.8718   -1.7513 H   0  0  0  0  0  0  0  0  0  0  0  0
   -2.8359   -0.0179   -1.4173 H   0  0  0  0  0  0  0  0  0  0  0  0
   -2.7213   -1.2220    0.9304 H   0  0  0  0  0  0  0  0  0  0  0  0
   -1.3254   -0.9147    1.9685 H   0  0  0  0  0  0  0  0  0  0  0  0
   -1.1514   -1.9030    0.5066 H   0  0  0  0  0  0  0  0  0  0  0  0
  1  2  1  0  0  0  0
  2  3  1  0  0  0  0
  2  4  1  0  0  0  0
  4  5  1  0  0  0  0
  5  6  1  0  0  0  0
  5  7  1  0  0  0  0
  1  8  1  0  0  0  0
  1  9  1  0  0  0  0
  1 10  1  0  0  0  0
  2 11  1  0  0  0  0
  3 12  1  0  0  0  0
  3 13  1  0  0  0  0
  3 14  1  0  0  0  0
  5 15  1  0  0  0  0
  6 16  1  0  0  0  0
  6 17  1  0  0  0  0
  6 18  1  0  0  0  0
  7 19  1  0  0  0  0
  7 20  1  0  0  0  0
  7 21  1  0  0  0  0
M  END
