 xtb: 6.7.1 (edcfbbe)
          04112511493D

 21 20  0     0  0            999 V2000
    1.7180   -1.1889   -0.0375 C   0  0  0  0  0  0  0  0  0  0  0  0
    1.2311    0.1585    0.4838 C   0  0  0  0  0  0  0  0  0  0  0  0
    1.0582    0.0766    1.5710 H   0  0  0  0  0  0  0  0  0  0  0  0
   -0.0647    0.6328   -0.1888 C   0  0  0  0  0  0  0  0  0  0  0  0
   -1.2891   -0.2500    0.1124 C   0  0  0  0  0  0  0  0  0  0  0  0
   -2.5104    0.6142    0.4285 C   0  0  0  0  0  0  0  0  0  0  0  0
   -1.6111   -1.1803   -1.0562 C   0  0  0  0  0  0  0  0  0  0  0  0
    2.2842    1.0854    0.2563 O   0  0  0  0  0  0  0  0  0  0  0  0
    1.0163   -1.9743    0.2217 H   0  0  0  0  0  0  0  0  0  0  0  0
    1.8393   -1.1440   -1.1166 H   0  0  0  0  0  0  0  0  0  0  0  0
    2.6841   -1.4142    0.4069 H   0  0  0  0  0  0  0  0  0  0  0  0
   -0.2639    1.6488    0.1612 H   0  0  0  0  0  0  0  0  0  0  0  0
    0.1052    0.6868   -1.2658 H   0  0  0  0  0  0  0  0  0  0  0  0
   -1.0696   -0.8605    0.9955 H   0  0  0  0  0  0  0  0  0  0  0  0
   -2.7454    1.2589   -0.4155 H   0  0  0  0  0  0  0  0  0  0  0  0
   -2.3280    1.2371    1.3011 H   0  0  0  0  0  0  0  0  0  0  0  0
   -3.3756   -0.0124    0.6319 H   0  0  0  0  0  0  0  0  0  0  0  0
   -0.7530   -1.7914   -1.3196 H   0  0  0  0  0  0  0  0  0  0  0  0
   -2.4364   -1.8402   -0.7984 H   0  0  0  0  0  0  0  0  0  0  0  0
   -1.8996   -0.5981   -1.9288 H   0  0  0  0  0  0  0  0  0  0  0  0
    2.0132    1.9619    0.5595 H   0  0  0  0  0  0  0  0  0  0  0  0
  1  2  1  0  0  0  0
  2  3  1  0  0  0  0
  2  4  1  0  0  0  0
  4  5  1  0  0  0  0
  5  6  1  0  0  0  0
  5  7  1  0  0  0  0
  2  8  1  0  0  0  0
  1  9  1  0  0  0  0
  1 10  1  0  0  0  0
  1 11  1  0  0  0  0
  4 12  1  0  0  0  0
  4 13  1  0  0  0  0
  5 14  1  0  0  0  0
  6 15  1  0  0  0  0
  6 16  1  0  0  0  0
  6 17  1  0  0  0  0
  7 18  1  0  0  0  0
  7 19  1  0  0  0  0
  7 20  1  0  0  0  0
  8 21  1  0  0  0  0
M  END
