 xtb: 6.7.1 (edcfbbe)
          04112511243D

 20 19  0     0  0            999 V2000
   -0.3901   -2.4074    0.7711 C   0  0  0  0  0  0  0  0  0  0  0  0
    0.0771   -1.3475   -0.2119 C   0  0  0  0  0  0  0  0  0  0  0  0
    1.0857   -0.5894    0.4320 O   0  0  0  0  0  0  0  0  0  0  0  0
    1.6011    0.4901   -0.1743 C   0  0  0  0  0  0  0  0  0  0  0  0
    1.2748    0.8419   -1.2856 O   0  0  0  0  0  0  0  0  0  0  0  0
    2.5904    1.1764    0.7083 C   0  0  0  0  0  0  0  0  0  0  0  0
   -1.0065   -0.5554   -0.6868 O   0  0  0  0  0  0  0  0  0  0  0  0
   -1.5092    0.4596    0.0292 C   0  0  0  0  0  0  0  0  0  0  0  0
   -1.1127    0.7764    1.1275 O   0  0  0  0  0  0  0  0  0  0  0  0
   -2.5978    1.1470   -0.7317 C   0  0  0  0  0  0  0  0  0  0  0  0
   -0.7831   -1.9203    1.6598 H   0  0  0  0  0  0  0  0  0  0  0  0
    0.4536   -3.0302    1.0475 H   0  0  0  0  0  0  0  0  0  0  0  0
   -1.1633   -3.0104    0.3067 H   0  0  0  0  0  0  0  0  0  0  0  0
    0.4850   -1.7845   -1.1345 H   0  0  0  0  0  0  0  0  0  0  0  0
    3.2364    0.4403    1.1763 H   0  0  0  0  0  0  0  0  0  0  0  0
    3.1611    1.8954    0.1305 H   0  0  0  0  0  0  0  0  0  0  0  0
    2.0379    1.6901    1.4931 H   0  0  0  0  0  0  0  0  0  0  0  0
   -2.1356    1.7434   -1.5160 H   0  0  0  0  0  0  0  0  0  0  0  0
   -3.2407    0.4092   -1.2010 H   0  0  0  0  0  0  0  0  0  0  0  0
   -3.1576    1.7932   -0.0639 H   0  0  0  0  0  0  0  0  0  0  0  0
  1  2  1  0  0  0  0
  2  3  1  0  0  0  0
  3  4  1  0  0  0  0
  4  5  2  0  0  0  0
  4  6  1  0  0  0  0
  2  7  1  0  0  0  0
  7  8  1  0  0  0  0
  8  9  2  0  0  0  0
  8 10  1  0  0  0  0
  1 11  1  0  0  0  0
  1 12  1  0  0  0  0
  1 13  1  0  0  0  0
  2 14  1  0  0  0  0
  6 15  1  0  0  0  0
  6 16  1  0  0  0  0
  6 17  1  0  0  0  0
 10 18  1  0  0  0  0
 10 19  1  0  0  0  0
 10 20  1  0  0  0  0
M  END
