 xtb: 6.7.1 (edcfbbe)
          04112511533D

 26 27  0     0  0            999 V2000
    0.5443    1.4334    1.0464 C   0  0  0  0  0  0  0  0  0  0  0  0
    1.8919    1.6635    1.2137 C   0  0  0  0  0  0  0  0  0  0  0  0
    2.8454    0.8863    0.5544 C   0  0  0  0  0  0  0  0  0  0  0  0
    2.4022   -0.1428   -0.2986 C   0  0  0  0  0  0  0  0  0  0  0  0
    1.0346   -0.3556   -0.4628 C   0  0  0  0  0  0  0  0  0  0  0  0
    0.0943    0.4167    0.2019 C   0  0  0  0  0  0  0  0  0  0  0  0
   -1.3415    0.1636    0.0034 C   0  0  0  0  0  0  0  0  0  0  0  0
   -1.8507   -0.0977   -1.2691 C   0  0  0  0  0  0  0  0  0  0  0  0
   -3.1955   -0.3384   -1.4787 C   0  0  0  0  0  0  0  0  0  0  0  0
   -4.0481   -0.3220   -0.3913 C   0  0  0  0  0  0  0  0  0  0  0  0
   -3.5992   -0.0762    0.8917 C   0  0  0  0  0  0  0  0  0  0  0  0
   -2.2493    0.1640    1.0600 C   0  0  0  0  0  0  0  0  0  0  0  0
   -1.8116    0.3816    2.3276 F   0  0  0  0  0  0  0  0  0  0  0  0
   -5.3726   -0.5564   -0.5814 F   0  0  0  0  0  0  0  0  0  0  0  0
    3.3660   -1.0004   -1.0110 C   0  0  0  0  0  0  0  0  0  0  0  0
    4.5738   -0.9760   -0.8716 O   0  0  0  0  0  0  0  0  0  0  0  0
    2.7852   -1.8487   -1.8601 O   0  0  0  0  0  0  0  0  0  0  0  0
    4.1588    1.1035    0.7081 O   0  0  0  0  0  0  0  0  0  0  0  0
   -0.1659    2.0579    1.5651 H   0  0  0  0  0  0  0  0  0  0  0  0
    2.2198    2.4586    1.8662 H   0  0  0  0  0  0  0  0  0  0  0  0
    0.7168   -1.1600   -1.1063 H   0  0  0  0  0  0  0  0  0  0  0  0
   -1.1744   -0.0940   -2.1081 H   0  0  0  0  0  0  0  0  0  0  0  0
   -3.5846   -0.5341   -2.4638 H   0  0  0  0  0  0  0  0  0  0  0  0
   -4.2712   -0.0751    1.7334 H   0  0  0  0  0  0  0  0  0  0  0  0
    3.4452   -2.4064   -2.3136 H   0  0  0  0  0  0  0  0  0  0  0  0
    4.3245    1.8397    1.3210 H   0  0  0  0  0  0  0  0  0  0  0  0
  1  2  4  0  0  0  0
  2  3  4  0  0  0  0
  3  4  4  0  0  0  0
  4  5  4  0  0  0  0
  1  6  4  0  0  0  0
  5  6  4  0  0  0  0
  6  7  1  0  0  0  0
  7  8  4  0  0  0  0
  8  9  4  0  0  0  0
  9 10  4  0  0  0  0
 10 11  4  0  0  0  0
  7 12  4  0  0  0  0
 11 12  4  0  0  0  0
 12 13  1  0  0  0  0
 10 14  1  0  0  0  0
  4 15  1  0  0  0  0
 15 16  2  0  0  0  0
 15 17  1  0  0  0  0
  3 18  1  0  0  0  0
  1 19  1  0  0  0  0
  2 20  1  0  0  0  0
  5 21  1  0  0  0  0
  8 22  1  0  0  0  0
  9 23  1  0  0  0  0
 11 24  1  0  0  0  0
 17 25  1  0  0  0  0
 18 26  1  0  0  0  0
M  END
