 xtb: 6.7.1 (edcfbbe)
          04112511193D

 23 23  0     0  0            999 V2000
   -0.1525    2.0834   -1.8936 C   0  0  0  0  0  0  0  0  0  0  0  0
   -0.3200    1.1943   -0.7550 N   0  0  0  0  0  0  0  0  0  0  0  0
   -1.4406    0.2976   -0.9467 C   0  0  0  0  0  0  0  0  0  0  0  0
   -1.8051   -0.4360    0.3307 C   0  0  0  0  0  0  0  0  0  0  0  0
   -0.9533   -1.4257    0.6537 F   0  0  0  0  0  0  0  0  0  0  0  0
   -1.8898    0.3570    1.4061 F   0  0  0  0  0  0  0  0  0  0  0  0
   -3.0131   -1.0315    0.2140 F   0  0  0  0  0  0  0  0  0  0  0  0
    0.8891    0.5318   -0.3564 C   0  0  0  0  0  0  0  0  0  0  0  0
    1.6997   -0.1496   -1.2563 C   0  0  0  0  0  0  0  0  0  0  0  0
    2.8604   -0.7612   -0.8174 C   0  0  0  0  0  0  0  0  0  0  0  0
    3.2167   -0.7014    0.5190 C   0  0  0  0  0  0  0  0  0  0  0  0
    2.4104   -0.0233    1.4177 C   0  0  0  0  0  0  0  0  0  0  0  0
    1.2519    0.5951    0.9825 C   0  0  0  0  0  0  0  0  0  0  0  0
   -1.0169    2.7435   -1.9435 H   0  0  0  0  0  0  0  0  0  0  0  0
   -0.0570    1.5545   -2.8496 H   0  0  0  0  0  0  0  0  0  0  0  0
    0.7388    2.6824   -1.7278 H   0  0  0  0  0  0  0  0  0  0  0  0
   -2.3156    0.8901   -1.2287 H   0  0  0  0  0  0  0  0  0  0  0  0
   -1.2700   -0.4793   -1.7137 H   0  0  0  0  0  0  0  0  0  0  0  0
    1.4271   -0.2044   -2.2997 H   0  0  0  0  0  0  0  0  0  0  0  0
    3.4860   -1.2891   -1.5213 H   0  0  0  0  0  0  0  0  0  0  0  0
    4.1211   -1.1820    0.8591 H   0  0  0  0  0  0  0  0  0  0  0  0
    2.6847    0.0272    2.4603 H   0  0  0  0  0  0  0  0  0  0  0  0
    0.6172    1.1286    1.6730 H   0  0  0  0  0  0  0  0  0  0  0  0
  1  2  1  0  0  0  0
  2  3  1  0  0  0  0
  3  4  1  0  0  0  0
  4  5  1  0  0  0  0
  4  6  1  0  0  0  0
  4  7  1  0  0  0  0
  2  8  1  0  0  0  0
  8  9  4  0  0  0  0
  9 10  4  0  0  0  0
 10 11  4  0  0  0  0
 11 12  4  0  0  0  0
  8 13  4  0  0  0  0
 12 13  4  0  0  0  0
  1 14  1  0  0  0  0
  1 15  1  0  0  0  0
  1 16  1  0  0  0  0
  3 17  1  0  0  0  0
  3 18  1  0  0  0  0
  9 19  1  0  0  0  0
 10 20  1  0  0  0  0
 11 21  1  0  0  0  0
 12 22  1  0  0  0  0
 13 23  1  0  0  0  0
M  END
