 xtb: 6.7.1 (edcfbbe)
          04112512193D

 17 16  0     0  0            999 V2000
   -2.3955    0.2595    1.0415 C   0  0  0  0  0  0  0  0  0  0  0  0
   -1.7943    0.6063   -0.3239 C   0  0  0  0  0  0  0  0  0  0  0  0
   -0.5294   -0.1859   -0.5274 C   0  0  0  0  0  0  0  0  0  0  0  0
   -0.4504   -1.2253   -1.1511 O   0  0  0  0  0  0  0  0  0  0  0  0
    0.5031    0.3710    0.0871 O   0  0  0  0  0  0  0  0  0  0  0  0
    1.7703   -0.3039    0.0169 C   0  0  0  0  0  0  0  0  0  0  0  0
    2.7850    0.5132    0.7926 C   0  0  0  0  0  0  0  0  0  0  0  0
   -1.6991    0.5162    1.8353 H   0  0  0  0  0  0  0  0  0  0  0  0
   -3.3166    0.8155    1.1872 H   0  0  0  0  0  0  0  0  0  0  0  0
   -2.6158   -0.8039    1.0977 H   0  0  0  0  0  0  0  0  0  0  0  0
   -1.5531    1.6676   -0.3611 H   0  0  0  0  0  0  0  0  0  0  0  0
   -2.4933    0.3500   -1.1190 H   0  0  0  0  0  0  0  0  0  0  0  0
    1.6508   -1.3092    0.4343 H   0  0  0  0  0  0  0  0  0  0  0  0
    2.0488   -0.4049   -1.0373 H   0  0  0  0  0  0  0  0  0  0  0  0
    2.8658    1.5080    0.3649 H   0  0  0  0  0  0  0  0  0  0  0  0
    2.4771    0.6021    1.8300 H   0  0  0  0  0  0  0  0  0  0  0  0
    3.7518    0.0233    0.7463 H   0  0  0  0  0  0  0  0  0  0  0  0
  1  2  1  0  0  0  0
  2  3  1  0  0  0  0
  3  4  2  0  0  0  0
  3  5  1  0  0  0  0
  5  6  1  0  0  0  0
  6  7  1  0  0  0  0
  1  8  1  0  0  0  0
  1  9  1  0  0  0  0
  1 10  1  0  0  0  0
  2 11  1  0  0  0  0
  2 12  1  0  0  0  0
  6 13  1  0  0  0  0
  6 14  1  0  0  0  0
  7 15  1  0  0  0  0
  7 16  1  0  0  0  0
  7 17  1  0  0  0  0
M  END
