 xtb: 6.7.1 (edcfbbe)
          04112511413D

 15 14  0     0  0            999 V2000
   -2.6450    0.6688    0.0892 C   0  0  0  0  0  0  0  0  0  0  0  0
   -1.2759    0.1391    0.4988 C   0  0  0  0  0  0  0  0  0  0  0  0
   -0.5674   -0.5431   -0.6694 C   0  0  0  0  0  0  0  0  0  0  0  0
    0.8157   -1.0785   -0.2713 C   0  0  0  0  0  0  0  0  0  0  0  0
    1.7188   -0.0135    0.0609 C   0  0  0  0  0  0  0  0  0  0  0  0
    2.4425    0.8387    0.3130 N   0  0  0  0  0  0  0  0  0  0  0  0
   -3.2779   -0.1424   -0.2634 H   0  0  0  0  0  0  0  0  0  0  0  0
   -3.1358    1.1465    0.9331 H   0  0  0  0  0  0  0  0  0  0  0  0
   -2.5472    1.4006   -0.7094 H   0  0  0  0  0  0  0  0  0  0  0  0
   -0.6588    0.9643    0.8631 H   0  0  0  0  0  0  0  0  0  0  0  0
   -1.3942   -0.5733    1.3187 H   0  0  0  0  0  0  0  0  0  0  0  0
   -0.4583    0.1663   -1.4926 H   0  0  0  0  0  0  0  0  0  0  0  0
   -1.1722   -1.3800   -1.0225 H   0  0  0  0  0  0  0  0  0  0  0  0
    0.7300   -1.7372    0.5966 H   0  0  0  0  0  0  0  0  0  0  0  0
    1.2554   -1.6431   -1.0970 H   0  0  0  0  0  0  0  0  0  0  0  0
  1  2  1  0  0  0  0
  2  3  1  0  0  0  0
  3  4  1  0  0  0  0
  4  5  1  0  0  0  0
  5  6  3  0  0  0  0
  1  7  1  0  0  0  0
  1  8  1  0  0  0  0
  1  9  1  0  0  0  0
  2 10  1  0  0  0  0
  2 11  1  0  0  0  0
  3 12  1  0  0  0  0
  3 13  1  0  0  0  0
  4 14  1  0  0  0  0
  4 15  1  0  0  0  0
M  END
