 xtb: 6.7.1 (edcfbbe)
          04112512153D

 21 20  0     0  0            999 V2000
    1.8399   -1.0545    0.4059 C   0  0  0  0  0  0  0  0  0  0  0  0
    1.2875    0.3026    0.8248 C   0  0  0  0  0  0  0  0  0  0  0  0
    0.1719    0.8711   -0.0645 C   0  0  0  0  0  0  0  0  0  0  0  0
   -0.0415    1.8805    0.3345 H   0  0  0  0  0  0  0  0  0  0  0  0
   -1.1830    0.1226   -0.0849 C   0  0  0  0  0  0  0  0  0  0  0  0
   -1.1469   -1.2037   -0.8446 C   0  0  0  0  0  0  0  0  0  0  0  0
   -1.7415   -0.0684    1.3223 C   0  0  0  0  0  0  0  0  0  0  0  0
    0.7024    1.0062   -1.3734 O   0  0  0  0  0  0  0  0  0  0  0  0
    1.1538   -1.8586    0.6507 H   0  0  0  0  0  0  0  0  0  0  0  0
    2.7780   -1.2410    0.9236 H   0  0  0  0  0  0  0  0  0  0  0  0
    2.0278   -1.0623   -0.6640 H   0  0  0  0  0  0  0  0  0  0  0  0
    0.9309    0.2668    1.8538 H   0  0  0  0  0  0  0  0  0  0  0  0
    2.1018    1.0298    0.7797 H   0  0  0  0  0  0  0  0  0  0  0  0
   -1.8681    0.7890   -0.6272 H   0  0  0  0  0  0  0  0  0  0  0  0
   -2.1493   -1.4695   -1.1725 H   0  0  0  0  0  0  0  0  0  0  0  0
   -0.5052   -1.1229   -1.7182 H   0  0  0  0  0  0  0  0  0  0  0  0
   -0.7753   -2.0071   -0.2166 H   0  0  0  0  0  0  0  0  0  0  0  0
   -2.7582   -0.4494    1.2657 H   0  0  0  0  0  0  0  0  0  0  0  0
   -1.7558    0.8754    1.8629 H   0  0  0  0  0  0  0  0  0  0  0  0
   -1.1425   -0.7813    1.8823 H   0  0  0  0  0  0  0  0  0  0  0  0
    0.0551    1.4564   -1.9316 H   0  0  0  0  0  0  0  0  0  0  0  0
  1  2  1  0  0  0  0
  2  3  1  0  0  0  0
  3  4  1  0  0  0  0
  3  5  1  0  0  0  0
  5  6  1  0  0  0  0
  5  7  1  0  0  0  0
  3  8  1  0  0  0  0
  1  9  1  0  0  0  0
  1 10  1  0  0  0  0
  1 11  1  0  0  0  0
  2 12  1  0  0  0  0
  2 13  1  0  0  0  0
  5 14  1  0  0  0  0
  6 15  1  0  0  0  0
  6 16  1  0  0  0  0
  6 17  1  0  0  0  0
  7 18  1  0  0  0  0
  7 19  1  0  0  0  0
  7 20  1  0  0  0  0
  8 21  1  0  0  0  0
M  END
