 xtb: 6.7.1 (edcfbbe)
          04112511543D

 23 24  0     0  0            999 V2000
   -3.6915   -0.7102   -0.1208 C   0  0  0  0  0  0  0  0  0  0  0  0
   -3.5240    0.4963    0.5393 C   0  0  0  0  0  0  0  0  0  0  0  0
   -2.2806    1.0979    0.5875 C   0  0  0  0  0  0  0  0  0  0  0  0
   -1.1929    0.4900   -0.0314 C   0  0  0  0  0  0  0  0  0  0  0  0
   -1.3609   -0.7125   -0.7089 C   0  0  0  0  0  0  0  0  0  0  0  0
   -2.6095   -1.3069   -0.7454 C   0  0  0  0  0  0  0  0  0  0  0  0
    0.0004    1.1732   -0.0029 O   0  0  0  0  0  0  0  0  0  0  0  0
    1.1930    0.4893    0.0284 C   0  0  0  0  0  0  0  0  0  0  0  0
    2.2832    1.0984   -0.5849 C   0  0  0  0  0  0  0  0  0  0  0  0
    3.5264    0.4966   -0.5331 C   0  0  0  0  0  0  0  0  0  0  0  0
    3.6913   -0.7112    0.1250 C   0  0  0  0  0  0  0  0  0  0  0  0
    2.6067   -1.3094    0.7438 C   0  0  0  0  0  0  0  0  0  0  0  0
    1.3583   -0.7148    0.7036 C   0  0  0  0  0  0  0  0  0  0  0  0
   -4.6618   -1.1804   -0.1527 H   0  0  0  0  0  0  0  0  0  0  0  0
   -4.3635    0.9710    1.0231 H   0  0  0  0  0  0  0  0  0  0  0  0
   -2.1298    2.0378    1.0948 H   0  0  0  0  0  0  0  0  0  0  0  0
   -0.5197   -1.1706   -1.2079 H   0  0  0  0  0  0  0  0  0  0  0  0
   -2.7344   -2.2406   -1.2720 H   0  0  0  0  0  0  0  0  0  0  0  0
    2.1347    2.0394   -1.0909 H   0  0  0  0  0  0  0  0  0  0  0  0
    4.3676    0.9722   -1.0129 H   0  0  0  0  0  0  0  0  0  0  0  0
    4.6613   -1.1817    0.1597 H   0  0  0  0  0  0  0  0  0  0  0  0
    2.7295   -2.2444    1.2686 H   0  0  0  0  0  0  0  0  0  0  0  0
    0.5152   -1.1740    1.1984 H   0  0  0  0  0  0  0  0  0  0  0  0
  1  2  4  0  0  0  0
  2  3  4  0  0  0  0
  3  4  4  0  0  0  0
  4  5  4  0  0  0  0
  1  6  4  0  0  0  0
  5  6  4  0  0  0  0
  4  7  1  0  0  0  0
  7  8  1  0  0  0  0
  8  9  4  0  0  0  0
  9 10  4  0  0  0  0
 10 11  4  0  0  0  0
 11 12  4  0  0  0  0
  8 13  4  0  0  0  0
 12 13  4  0  0  0  0
  1 14  1  0  0  0  0
  2 15  1  0  0  0  0
  3 16  1  0  0  0  0
  5 17  1  0  0  0  0
  6 18  1  0  0  0  0
  9 19  1  0  0  0  0
 10 20  1  0  0  0  0
 11 21  1  0  0  0  0
 12 22  1  0  0  0  0
 13 23  1  0  0  0  0
M  END
