 xtb: 6.7.1 (edcfbbe)
          04112511193D

 23 23  0     0  0            999 V2000
   -0.4617    2.3494   -0.3604 C   0  0  0  0  0  0  0  0  0  0  0  0
   -0.1455    1.0137   -0.8270 N   0  0  0  0  0  0  0  0  0  0  0  0
   -1.2823    0.1875   -1.1168 C   0  0  0  0  0  0  0  0  0  0  0  0
   -1.9601   -0.3910    0.1331 C   0  0  0  0  0  0  0  0  0  0  0  0
   -2.5365    0.5427    0.9127 F   0  0  0  0  0  0  0  0  0  0  0  0
   -2.9447   -1.2544   -0.1938 F   0  0  0  0  0  0  0  0  0  0  0  0
   -1.1175   -1.0695    0.9299 F   0  0  0  0  0  0  0  0  0  0  0  0
    1.0381    0.4101   -0.3893 C   0  0  0  0  0  0  0  0  0  0  0  0
    1.4878   -0.7809   -0.9681 C   0  0  0  0  0  0  0  0  0  0  0  0
    2.6845   -1.3504   -0.5823 C   0  0  0  0  0  0  0  0  0  0  0  0
    3.4733   -0.7524    0.3861 C   0  0  0  0  0  0  0  0  0  0  0  0
    3.0432    0.4292    0.9614 C   0  0  0  0  0  0  0  0  0  0  0  0
    1.8439    1.0050    0.5838 C   0  0  0  0  0  0  0  0  0  0  0  0
   -1.2862    2.7356   -0.9564 H   0  0  0  0  0  0  0  0  0  0  0  0
    0.4032    2.9897   -0.5181 H   0  0  0  0  0  0  0  0  0  0  0  0
   -0.7504    2.3851    0.6959 H   0  0  0  0  0  0  0  0  0  0  0  0
   -2.0406    0.7719   -1.6445 H   0  0  0  0  0  0  0  0  0  0  0  0
   -1.0043   -0.6669   -1.7358 H   0  0  0  0  0  0  0  0  0  0  0  0
    0.9141   -1.2696   -1.7395 H   0  0  0  0  0  0  0  0  0  0  0  0
    3.0058   -2.2702   -1.0482 H   0  0  0  0  0  0  0  0  0  0  0  0
    4.4072   -1.2015    0.6863 H   0  0  0  0  0  0  0  0  0  0  0  0
    3.6417    0.9097    1.7213 H   0  0  0  0  0  0  0  0  0  0  0  0
    1.5364    1.9162    1.0688 H   0  0  0  0  0  0  0  0  0  0  0  0
  1  2  1  0  0  0  0
  2  3  1  0  0  0  0
  3  4  1  0  0  0  0
  4  5  1  0  0  0  0
  4  6  1  0  0  0  0
  4  7  1  0  0  0  0
  2  8  1  0  0  0  0
  8  9  4  0  0  0  0
  9 10  4  0  0  0  0
 10 11  4  0  0  0  0
 11 12  4  0  0  0  0
  8 13  4  0  0  0  0
 12 13  4  0  0  0  0
  1 14  1  0  0  0  0
  1 15  1  0  0  0  0
  1 16  1  0  0  0  0
  3 17  1  0  0  0  0
  3 18  1  0  0  0  0
  9 19  1  0  0  0  0
 10 20  1  0  0  0  0
 11 21  1  0  0  0  0
 12 22  1  0  0  0  0
 13 23  1  0  0  0  0
M  END
