 xtb: 6.7.1 (edcfbbe)
          04112512233D

 20 19  0     0  0            999 V2000
   -2.3992   -0.2694   -1.2067 C   0  0  0  0  0  0  0  0  0  0  0  0
   -1.9327    0.1722    0.1784 C   0  0  0  0  0  0  0  0  0  0  0  0
   -1.8313   -1.0192    1.1282 C   0  0  0  0  0  0  0  0  0  0  0  0
   -0.5919    0.9035    0.0846 C   0  0  0  0  0  0  0  0  0  0  0  0
    0.4129    0.0155   -0.4220 O   0  0  0  0  0  0  0  0  0  0  0  0
    1.6546    0.1368    0.0249 C   0  0  0  0  0  0  0  0  0  0  0  0
    1.9963    0.9640    0.8468 O   0  0  0  0  0  0  0  0  0  0  0  0
    2.5736   -0.8580   -0.6191 C   0  0  0  0  0  0  0  0  0  0  0  0
   -1.6679   -0.9404   -1.6491 H   0  0  0  0  0  0  0  0  0  0  0  0
   -2.5212    0.5902   -1.8606 H   0  0  0  0  0  0  0  0  0  0  0  0
   -3.3511   -0.7879   -1.1346 H   0  0  0  0  0  0  0  0  0  0  0  0
   -2.6500    0.8915    0.5861 H   0  0  0  0  0  0  0  0  0  0  0  0
   -1.4931   -0.6986    2.1111 H   0  0  0  0  0  0  0  0  0  0  0  0
   -1.1248   -1.7490    0.7402 H   0  0  0  0  0  0  0  0  0  0  0  0
   -2.8002   -1.4986    1.2347 H   0  0  0  0  0  0  0  0  0  0  0  0
   -0.6620    1.7527   -0.6025 H   0  0  0  0  0  0  0  0  0  0  0  0
   -0.2681    1.2701    1.0644 H   0  0  0  0  0  0  0  0  0  0  0  0
    2.0100   -1.7170   -0.9665 H   0  0  0  0  0  0  0  0  0  0  0  0
    3.3440   -1.1509    0.0873 H   0  0  0  0  0  0  0  0  0  0  0  0
    3.0526   -0.3793   -1.4707 H   0  0  0  0  0  0  0  0  0  0  0  0
  1  2  1  0  0  0  0
  2  3  1  0  0  0  0
  2  4  1  0  0  0  0
  4  5  1  0  0  0  0
  5  6  1  0  0  0  0
  6  7  2  0  0  0  0
  6  8  1  0  0  0  0
  1  9  1  0  0  0  0
  1 10  1  0  0  0  0
  1 11  1  0  0  0  0
  2 12  1  0  0  0  0
  3 13  1  0  0  0  0
  3 14  1  0  0  0  0
  3 15  1  0  0  0  0
  4 16  1  0  0  0  0
  4 17  1  0  0  0  0
  8 18  1  0  0  0  0
  8 19  1  0  0  0  0
  8 20  1  0  0  0  0
M  END
