 xtb: 6.7.1 (edcfbbe)
          04112511493D

 21 20  0     0  0            999 V2000
    2.2450    0.5414   -0.8892 C   0  0  0  0  0  0  0  0  0  0  0  0
    1.0635   -0.1443   -0.2076 C   0  0  0  0  0  0  0  0  0  0  0  0
    0.6271   -0.8674   -0.9130 H   0  0  0  0  0  0  0  0  0  0  0  0
    0.0018    0.8824    0.2254 C   0  0  0  0  0  0  0  0  0  0  0  0
   -1.4598    0.4101    0.1687 C   0  0  0  0  0  0  0  0  0  0  0  0
   -1.9319    0.2150   -1.2716 C   0  0  0  0  0  0  0  0  0  0  0  0
   -1.7010   -0.8575    0.9869 C   0  0  0  0  0  0  0  0  0  0  0  0
    1.5957   -0.8549    0.9032 O   0  0  0  0  0  0  0  0  0  0  0  0
    2.6656    1.2922   -0.2255 H   0  0  0  0  0  0  0  0  0  0  0  0
    3.0147   -0.1942   -1.1074 H   0  0  0  0  0  0  0  0  0  0  0  0
    1.9252    1.0111   -1.8141 H   0  0  0  0  0  0  0  0  0  0  0  0
    0.2438    1.1895    1.2460 H   0  0  0  0  0  0  0  0  0  0  0  0
    0.0934    1.7647   -0.4097 H   0  0  0  0  0  0  0  0  0  0  0  0
   -2.0621    1.2135    0.6094 H   0  0  0  0  0  0  0  0  0  0  0  0
   -2.9891   -0.0386   -1.2883 H   0  0  0  0  0  0  0  0  0  0  0  0
   -1.3840   -0.5876   -1.7590 H   0  0  0  0  0  0  0  0  0  0  0  0
   -1.7882    1.1262   -1.8471 H   0  0  0  0  0  0  0  0  0  0  0  0
   -1.3633   -0.7230    2.0122 H   0  0  0  0  0  0  0  0  0  0  0  0
   -2.7636   -1.0889    1.0099 H   0  0  0  0  0  0  0  0  0  0  0  0
   -1.1868   -1.7084    0.5454 H   0  0  0  0  0  0  0  0  0  0  0  0
    0.8758   -1.2974    1.3710 H   0  0  0  0  0  0  0  0  0  0  0  0
  1  2  1  0  0  0  0
  2  3  1  0  0  0  0
  2  4  1  0  0  0  0
  4  5  1  0  0  0  0
  5  6  1  0  0  0  0
  5  7  1  0  0  0  0
  2  8  1  0  0  0  0
  1  9  1  0  0  0  0
  1 10  1  0  0  0  0
  1 11  1  0  0  0  0
  4 12  1  0  0  0  0
  4 13  1  0  0  0  0
  5 14  1  0  0  0  0
  6 15  1  0  0  0  0
  6 16  1  0  0  0  0
  6 17  1  0  0  0  0
  7 18  1  0  0  0  0
  7 19  1  0  0  0  0
  7 20  1  0  0  0  0
  8 21  1  0  0  0  0
M  END
