 xtb: 6.7.1 (edcfbbe)
          04112511193D

 14 13  0     0  0            999 V2000
   -1.2897    0.0521    0.5472 C   0  0  0  0  0  0  0  0  0  0  0  0
    0.1074    0.6896    0.6127 C   0  0  0  0  0  0  0  0  0  0  0  0
    1.2209   -0.3709    0.6569 C   0  0  0  0  0  0  0  0  0  0  0  0
    1.1553   -1.2020   -0.4830 O   0  0  0  0  0  0  0  0  0  0  0  0
    0.2336    1.5710   -0.4779 O   0  0  0  0  0  0  0  0  0  0  0  0
   -1.5599   -0.6230   -0.6537 O   0  0  0  0  0  0  0  0  0  0  0  0
   -2.0416    0.8412    0.6271 H   0  0  0  0  0  0  0  0  0  0  0  0
   -1.3977   -0.6309    1.4033 H   0  0  0  0  0  0  0  0  0  0  0  0
    0.1643    1.2523    1.5602 H   0  0  0  0  0  0  0  0  0  0  0  0
    1.0896   -0.9594    1.5736 H   0  0  0  0  0  0  0  0  0  0  0  0
    2.1929    0.1383    0.7016 H   0  0  0  0  0  0  0  0  0  0  0  0
    1.8605   -1.8623   -0.4463 H   0  0  0  0  0  0  0  0  0  0  0  0
    1.1344    1.9219   -0.5146 H   0  0  0  0  0  0  0  0  0  0  0  0
   -0.7487   -1.0868   -0.9244 H   0  0  0  0  0  0  0  0  0  0  0  0
  1  2  1  0  0  0  0
  2  3  1  0  0  0  0
  3  4  1  0  0  0  0
  2  5  1  0  0  0  0
  1  6  1  0  0  0  0
  1  7  1  0  0  0  0
  1  8  1  0  0  0  0
  2  9  1  0  0  0  0
  3 10  1  0  0  0  0
  3 11  1  0  0  0  0
  4 12  1  0  0  0  0
  5 13  1  0  0  0  0
  6 14  1  0  0  0  0
M  END
