 xtb: 6.7.1 (edcfbbe)
          04112511523D

 13 12  0     0  0            999 V2000
    2.0519   -1.0167   -0.1446 C   0  0  0  0  0  0  0  0  0  0  0  0
    0.8297   -0.6337   -0.7939 O   0  0  0  0  0  0  0  0  0  0  0  0
   -0.0738    0.4565   -0.1063 S   0  0  0  0  0  0  0  0  0  0  0  0
   -0.2849    1.5314   -1.0231 O   0  0  0  0  0  0  0  0  0  0  0  0
    0.4513    0.7731    1.1900 O   0  0  0  0  0  0  0  0  0  0  0  0
   -1.4475   -0.2771    0.0166 O   0  0  0  0  0  0  0  0  0  0  0  0
   -1.4702   -1.3698    0.9477 C   0  0  0  0  0  0  0  0  0  0  0  0
    2.5977   -1.6022   -0.8806 H   0  0  0  0  0  0  0  0  0  0  0  0
    1.8292   -1.6081    0.7423 H   0  0  0  0  0  0  0  0  0  0  0  0
    2.6083   -0.1267    0.1413 H   0  0  0  0  0  0  0  0  0  0  0  0
   -0.9262   -1.0730    1.8438 H   0  0  0  0  0  0  0  0  0  0  0  0
   -1.0104   -2.2421    0.4843 H   0  0  0  0  0  0  0  0  0  0  0  0
   -2.5181   -1.5551    1.1697 H   0  0  0  0  0  0  0  0  0  0  0  0
  1  2  1  0  0  0  0
  2  3  1  0  0  0  0
  3  4  2  0  0  0  0
  3  5  2  0  0  0  0
  3  6  1  0  0  0  0
  6  7  1  0  0  0  0
  1  8  1  0  0  0  0
  1  9  1  0  0  0  0
  1 10  1  0  0  0  0
  7 11  1  0  0  0  0
  7 12  1  0  0  0  0
  7 13  1  0  0  0  0
M  END
