 xtb: 6.7.1 (edcfbbe)
          04082510373D

 16 15  0     0  0            999 V2000
   -2.1295    0.0423    0.7550 C   0  0  0  0  0  0  0  0  0  0  0  0
   -1.5403    0.1459   -0.6472 C   0  0  0  0  0  0  0  0  0  0  0  0
   -0.2217   -0.6182   -0.7592 C   0  0  0  0  0  0  0  0  0  0  0  0
    0.9171    0.0465   -0.0236 C   0  0  0  0  0  0  0  0  0  0  0  0
    0.9193    1.2275    0.2631 O   0  0  0  0  0  0  0  0  0  0  0  0
    2.0605   -0.8655    0.3171 C   0  0  0  0  0  0  0  0  0  0  0  0
   -3.0688    0.5860    0.8137 H   0  0  0  0  0  0  0  0  0  0  0  0
   -1.4428    0.4687    1.4834 H   0  0  0  0  0  0  0  0  0  0  0  0
   -2.3151   -0.9968    1.0178 H   0  0  0  0  0  0  0  0  0  0  0  0
   -1.3598    1.1958   -0.8862 H   0  0  0  0  0  0  0  0  0  0  0  0
   -2.2513   -0.2530   -1.3722 H   0  0  0  0  0  0  0  0  0  0  0  0
   -0.3371   -1.6411   -0.4000 H   0  0  0  0  0  0  0  0  0  0  0  0
    0.0846   -0.6684   -1.8078 H   0  0  0  0  0  0  0  0  0  0  0  0
    2.9329   -0.2869    0.6082 H   0  0  0  0  0  0  0  0  0  0  0  0
    2.2953   -1.5123   -0.5228 H   0  0  0  0  0  0  0  0  0  0  0  0
    1.7600   -1.4929    1.1542 H   0  0  0  0  0  0  0  0  0  0  0  0
  1  2  1  0  0  0  0
  2  3  1  0  0  0  0
  3  4  1  0  0  0  0
  4  5  2  0  0  0  0
  4  6  1  0  0  0  0
  1  7  1  0  0  0  0
  1  8  1  0  0  0  0
  1  9  1  0  0  0  0
  2 10  1  0  0  0  0
  2 11  1  0  0  0  0
  3 12  1  0  0  0  0
  3 13  1  0  0  0  0
  6 14  1  0  0  0  0
  6 15  1  0  0  0  0
  6 16  1  0  0  0  0
M  END
