 xtb: 6.7.1 (edcfbbe)
          04112511173D

 35 35  0     0  0            999 V2000
   -0.3345   -2.7092   -0.1445 C   0  0  0  0  0  0  0  0  0  0  0  0
    0.4826   -1.4625   -0.0280 C   0  0  0  0  0  0  0  0  0  0  0  0
    1.8524   -1.4136   -0.3316 C   0  0  0  0  0  0  0  0  0  0  0  0
    2.5611   -0.3065   -0.2071 N   0  0  0  0  0  0  0  0  0  0  0  0
    1.9438    0.8068    0.2193 C   0  0  0  0  0  0  0  0  0  0  0  0
    0.6265    0.8723    0.4957 N   0  0  0  0  0  0  0  0  0  0  0  0
   -0.0578   -0.2437    0.3607 C   0  0  0  0  0  0  0  0  0  0  0  0
   -1.4069   -0.1318    0.6860 O   0  0  0  0  0  0  0  0  0  0  0  0
   -2.2790   -0.1065   -0.3635 C   0  0  0  0  0  0  0  0  0  0  0  0
   -1.9088   -0.2098   -1.5240 O   0  0  0  0  0  0  0  0  0  0  0  0
   -3.5470    0.0354    0.0244 N   0  0  0  0  0  0  0  0  0  0  0  0
   -4.6050    0.0687   -0.9633 C   0  0  0  0  0  0  0  0  0  0  0  0
   -3.9676    0.1621    1.4031 C   0  0  0  0  0  0  0  0  0  0  0  0
    2.6747    1.9149    0.3737 N   0  0  0  0  0  0  0  0  0  0  0  0
    4.0874    1.9417    0.0805 C   0  0  0  0  0  0  0  0  0  0  0  0
    2.0960    3.1618    0.8096 C   0  0  0  0  0  0  0  0  0  0  0  0
    2.5831   -2.6229   -0.8154 C   0  0  0  0  0  0  0  0  0  0  0  0
    0.2324   -3.5724    0.1940 H   0  0  0  0  0  0  0  0  0  0  0  0
   -1.2398   -2.6228    0.4531 H   0  0  0  0  0  0  0  0  0  0  0  0
   -0.6271   -2.8682   -1.1833 H   0  0  0  0  0  0  0  0  0  0  0  0
   -5.1299    1.0226   -0.9099 H   0  0  0  0  0  0  0  0  0  0  0  0
   -5.3081   -0.7430   -0.7758 H   0  0  0  0  0  0  0  0  0  0  0  0
   -4.1628   -0.0494   -1.9495 H   0  0  0  0  0  0  0  0  0  0  0  0
   -4.5726   -0.7016    1.6829 H   0  0  0  0  0  0  0  0  0  0  0  0
   -4.5654    1.0670    1.5125 H   0  0  0  0  0  0  0  0  0  0  0  0
   -3.0984    0.2222    2.0500 H   0  0  0  0  0  0  0  0  0  0  0  0
    4.4002    0.9495   -0.2280 H   0  0  0  0  0  0  0  0  0  0  0  0
    4.6409    2.2444    0.9706 H   0  0  0  0  0  0  0  0  0  0  0  0
    4.2858    2.6558   -0.7206 H   0  0  0  0  0  0  0  0  0  0  0  0
    2.5887    3.4964    1.7239 H   0  0  0  0  0  0  0  0  0  0  0  0
    1.0376    3.0123    0.9970 H   0  0  0  0  0  0  0  0  0  0  0  0
    2.2272    3.9218    0.0371 H   0  0  0  0  0  0  0  0  0  0  0  0
    3.6031   -2.3503   -1.0648 H   0  0  0  0  0  0  0  0  0  0  0  0
    2.5937   -3.3862   -0.0399 H   0  0  0  0  0  0  0  0  0  0  0  0
    2.0850   -3.0327   -1.6907 H   0  0  0  0  0  0  0  0  0  0  0  0
  1  2  1  0  0  0  0
  2  3  4  0  0  0  0
  3  4  4  0  0  0  0
  4  5  4  0  0  0  0
  5  6  4  0  0  0  0
  2  7  4  0  0  0  0
  6  7  4  0  0  0  0
  7  8  1  0  0  0  0
  8  9  1  0  0  0  0
  9 10  2  0  0  0  0
  9 11  4  0  0  0  0
 11 12  1  0  0  0  0
 11 13  1  0  0  0  0
  5 14  4  0  0  0  0
 14 15  1  0  0  0  0
 14 16  1  0  0  0  0
  3 17  1  0  0  0  0
  1 18  1  0  0  0  0
  1 19  1  0  0  0  0
  1 20  1  0  0  0  0
 12 21  1  0  0  0  0
 12 22  1  0  0  0  0
 12 23  1  0  0  0  0
 13 24  1  0  0  0  0
 13 25  1  0  0  0  0
 13 26  1  0  0  0  0
 15 27  1  0  0  0  0
 15 28  1  0  0  0  0
 15 29  1  0  0  0  0
 16 30  1  0  0  0  0
 16 31  1  0  0  0  0
 16 32  1  0  0  0  0
 17 33  1  0  0  0  0
 17 34  1  0  0  0  0
 17 35  1  0  0  0  0
M  END
