 xtb: 6.7.1 (edcfbbe)
          04112510483D

 27 27  0     0  0            999 V2000
   -3.8884   -0.6303   -1.6923 C   0  0  0  0  0  0  0  0  0  0  0  0
   -3.0083   -1.5722   -0.8796 C   0  0  0  0  0  0  0  0  0  0  0  0
   -2.4652   -1.0138    0.4448 C   0  0  0  0  0  0  0  0  0  0  0  0
   -1.9872   -1.8556    0.9615 H   0  0  0  0  0  0  0  0  0  0  0  0
   -3.5322   -0.4430    1.3680 C   0  0  0  0  0  0  0  0  0  0  0  0
   -1.3427   -0.0789    0.2131 N   0  0  0  0  0  0  0  0  0  0  0  0
   -0.0733   -0.6633    0.2391 C   0  0  0  0  0  0  0  0  0  0  0  0
    0.0670   -1.8636    0.4078 O   0  0  0  0  0  0  0  0  0  0  0  0
    1.0354    0.2471    0.0645 C   0  0  0  0  0  0  0  0  0  0  0  0
    0.8639    1.5779   -0.1344 C   0  0  0  0  0  0  0  0  0  0  0  0
   -0.4210    2.0264   -0.1770 N   0  0  0  0  0  0  0  0  0  0  0  0
   -1.5531    1.2553   -0.0410 C   0  0  0  0  0  0  0  0  0  0  0  0
   -2.6435    1.7823   -0.1499 O   0  0  0  0  0  0  0  0  0  0  0  0
    1.9334    2.5874   -0.3238 C   0  0  0  0  0  0  0  0  0  0  0  0
    2.7525   -0.5676    0.1302 Br  0  0  0  0  0  0  0  0  0  0  0  0
   -3.3765    0.3007   -1.9176 H   0  0  0  0  0  0  0  0  0  0  0  0
   -4.1600   -1.1096   -2.6295 H   0  0  0  0  0  0  0  0  0  0  0  0
   -4.7999   -0.3933   -1.1523 H   0  0  0  0  0  0  0  0  0  0  0  0
   -3.5816   -2.4684   -0.6365 H   0  0  0  0  0  0  0  0  0  0  0  0
   -2.1518   -1.8884   -1.4815 H   0  0  0  0  0  0  0  0  0  0  0  0
   -4.2568   -1.2250    1.5747 H   0  0  0  0  0  0  0  0  0  0  0  0
   -3.0836   -0.1266    2.3068 H   0  0  0  0  0  0  0  0  0  0  0  0
   -4.0387    0.4057    0.9221 H   0  0  0  0  0  0  0  0  0  0  0  0
   -0.5954    3.0118   -0.3508 H   0  0  0  0  0  0  0  0  0  0  0  0
    1.7595    3.4406    0.3272 H   0  0  0  0  0  0  0  0  0  0  0  0
    1.9265    2.9396   -1.3539 H   0  0  0  0  0  0  0  0  0  0  0  0
    2.9093    2.1634   -0.1094 H   0  0  0  0  0  0  0  0  0  0  0  0
  1  2  1  0  0  0  0
  2  3  1  0  0  0  0
  3  4  1  0  0  0  0
  3  5  1  0  0  0  0
  3  6  1  0  0  0  0
  6  7  1  0  0  0  0
  7  8  2  0  0  0  0
  7  9  1  0  0  0  0
  9 10  2  0  0  0  0
 10 11  1  0  0  0  0
  6 12  1  0  0  0  0
 11 12  1  0  0  0  0
 12 13  2  0  0  0  0
 10 14  1  0  0  0  0
  9 15  1  0  0  0  0
  1 16  1  0  0  0  0
  1 17  1  0  0  0  0
  1 18  1  0  0  0  0
  2 19  1  0  0  0  0
  2 20  1  0  0  0  0
  5 21  1  0  0  0  0
  5 22  1  0  0  0  0
  5 23  1  0  0  0  0
 11 24  1  0  0  0  0
 14 25  1  0  0  0  0
 14 26  1  0  0  0  0
 14 27  1  0  0  0  0
M  END
