 xtb: 6.7.1 (edcfbbe)
          04112511523D

 18 17  0     0  0            999 V2000
    1.9839   -1.2187   -0.2957 C   0  0  0  0  0  0  0  0  0  0  0  0
    0.8252   -0.3561    0.2039 C   0  0  0  0  0  0  0  0  0  0  0  0
    1.3414    1.0375    0.5650 C   0  0  0  0  0  0  0  0  0  0  0  0
   -0.2876   -0.2778   -0.8550 C   0  0  0  0  0  0  0  0  0  0  0  0
   -1.7011   -0.2301   -0.2657 C   0  0  0  0  0  0  0  0  0  0  0  0
   -1.9696    0.9111    0.5240 O   0  0  0  0  0  0  0  0  0  0  0  0
    1.6537   -2.2375   -0.4841 H   0  0  0  0  0  0  0  0  0  0  0  0
    2.7809   -1.2473    0.4437 H   0  0  0  0  0  0  0  0  0  0  0  0
    2.3872   -0.8099   -1.2195 H   0  0  0  0  0  0  0  0  0  0  0  0
    0.4184   -0.8303    1.1051 H   0  0  0  0  0  0  0  0  0  0  0  0
    1.8902    1.4574   -0.2757 H   0  0  0  0  0  0  0  0  0  0  0  0
    2.0129    0.9880    1.4194 H   0  0  0  0  0  0  0  0  0  0  0  0
    0.5246    1.7136    0.8026 H   0  0  0  0  0  0  0  0  0  0  0  0
   -0.2468   -1.1581   -1.4981 H   0  0  0  0  0  0  0  0  0  0  0  0
   -0.1345    0.6027   -1.4808 H   0  0  0  0  0  0  0  0  0  0  0  0
   -2.4310   -0.1909   -1.0786 H   0  0  0  0  0  0  0  0  0  0  0  0
   -1.8868   -1.1411    0.3190 H   0  0  0  0  0  0  0  0  0  0  0  0
   -1.4646    0.8463    1.3455 H   0  0  0  0  0  0  0  0  0  0  0  0
  1  2  1  0  0  0  0
  2  3  1  0  0  0  0
  2  4  1  0  0  0  0
  4  5  1  0  0  0  0
  5  6  1  0  0  0  0
  1  7  1  0  0  0  0
  1  8  1  0  0  0  0
  1  9  1  0  0  0  0
  2 10  1  0  0  0  0
  3 11  1  0  0  0  0
  3 12  1  0  0  0  0
  3 13  1  0  0  0  0
  4 14  1  0  0  0  0
  4 15  1  0  0  0  0
  5 16  1  0  0  0  0
  5 17  1  0  0  0  0
  6 18  1  0  0  0  0
M  END
