 xtb: 6.7.1 (edcfbbe)
          04112510483D

 27 27  0     0  0            999 V2000
   -3.0326   -0.6661    2.0506 C   0  0  0  0  0  0  0  0  0  0  0  0
   -3.0016   -1.4576    0.7479 C   0  0  0  0  0  0  0  0  0  0  0  0
   -2.7196   -0.5686   -0.4662 C   0  0  0  0  0  0  0  0  0  0  0  0
   -3.4822    0.2160   -0.5122 H   0  0  0  0  0  0  0  0  0  0  0  0
   -2.7297   -1.3519   -1.7750 C   0  0  0  0  0  0  0  0  0  0  0  0
   -1.4484    0.1624   -0.3064 N   0  0  0  0  0  0  0  0  0  0  0  0
   -0.2576   -0.5502   -0.2034 C   0  0  0  0  0  0  0  0  0  0  0  0
   -0.2233   -1.7663   -0.2559 O   0  0  0  0  0  0  0  0  0  0  0  0
    0.9277    0.2679   -0.0296 C   0  0  0  0  0  0  0  0  0  0  0  0
    0.8856    1.6215    0.0277 C   0  0  0  0  0  0  0  0  0  0  0  0
   -0.3434    2.2040   -0.0867 N   0  0  0  0  0  0  0  0  0  0  0  0
   -1.5278    1.5349   -0.2501 C   0  0  0  0  0  0  0  0  0  0  0  0
   -2.5742    2.1536   -0.3391 O   0  0  0  0  0  0  0  0  0  0  0  0
    2.0392    2.5374    0.2022 C   0  0  0  0  0  0  0  0  0  0  0  0
    2.5480   -0.7175    0.1119 Br  0  0  0  0  0  0  0  0  0  0  0  0
   -3.7252    0.1696    1.9727 H   0  0  0  0  0  0  0  0  0  0  0  0
   -3.3483   -1.3058    2.8698 H   0  0  0  0  0  0  0  0  0  0  0  0
   -2.0463   -0.2720    2.2906 H   0  0  0  0  0  0  0  0  0  0  0  0
   -2.2493   -2.2449    0.8061 H   0  0  0  0  0  0  0  0  0  0  0  0
   -3.9715   -1.9279    0.5846 H   0  0  0  0  0  0  0  0  0  0  0  0
   -3.7116   -1.7915   -1.9186 H   0  0  0  0  0  0  0  0  0  0  0  0
   -2.5170   -0.6910   -2.6123 H   0  0  0  0  0  0  0  0  0  0  0  0
   -1.9888   -2.1463   -1.7517 H   0  0  0  0  0  0  0  0  0  0  0  0
   -0.4172    3.2159   -0.0479 H   0  0  0  0  0  0  0  0  0  0  0  0
    2.1032    3.2152   -0.6464 H   0  0  0  0  0  0  0  0  0  0  0  0
    2.9684    1.9822    0.2824 H   0  0  0  0  0  0  0  0  0  0  0  0
    1.9039    3.1338    1.1021 H   0  0  0  0  0  0  0  0  0  0  0  0
  1  2  1  0  0  0  0
  2  3  1  0  0  0  0
  3  4  1  0  0  0  0
  3  5  1  0  0  0  0
  3  6  1  0  0  0  0
  6  7  1  0  0  0  0
  7  8  2  0  0  0  0
  7  9  1  0  0  0  0
  9 10  2  0  0  0  0
 10 11  1  0  0  0  0
  6 12  1  0  0  0  0
 11 12  1  0  0  0  0
 12 13  2  0  0  0  0
 10 14  1  0  0  0  0
  9 15  1  0  0  0  0
  1 16  1  0  0  0  0
  1 17  1  0  0  0  0
  1 18  1  0  0  0  0
  2 19  1  0  0  0  0
  2 20  1  0  0  0  0
  5 21  1  0  0  0  0
  5 22  1  0  0  0  0
  5 23  1  0  0  0  0
 11 24  1  0  0  0  0
 14 25  1  0  0  0  0
 14 26  1  0  0  0  0
 14 27  1  0  0  0  0
M  END
