 xtb: 6.7.1 (edcfbbe)
          04112512153D

 21 20  0     0  0            999 V2000
    2.0362   -0.9658    0.1957 C   0  0  0  0  0  0  0  0  0  0  0  0
    1.2012    0.0872    0.9180 C   0  0  0  0  0  0  0  0  0  0  0  0
    0.1678    0.8201    0.0428 C   0  0  0  0  0  0  0  0  0  0  0  0
   -0.0499    1.7774    0.5511 H   0  0  0  0  0  0  0  0  0  0  0  0
   -1.1976    0.1191   -0.1467 C   0  0  0  0  0  0  0  0  0  0  0  0
   -1.0924   -1.2589   -0.7943 C   0  0  0  0  0  0  0  0  0  0  0  0
   -1.9777    0.0431    1.1637 C   0  0  0  0  0  0  0  0  0  0  0  0
    0.7770    1.1019   -1.2063 O   0  0  0  0  0  0  0  0  0  0  0  0
    2.4570   -0.5411   -0.7114 H   0  0  0  0  0  0  0  0  0  0  0  0
    1.4487   -1.8372   -0.0710 H   0  0  0  0  0  0  0  0  0  0  0  0
    2.8507   -1.2853    0.8418 H   0  0  0  0  0  0  0  0  0  0  0  0
    0.6882   -0.3569    1.7702 H   0  0  0  0  0  0  0  0  0  0  0  0
    1.8864    0.8461    1.3021 H   0  0  0  0  0  0  0  0  0  0  0  0
   -1.7642    0.7652   -0.8313 H   0  0  0  0  0  0  0  0  0  0  0  0
   -2.0695   -1.5760   -1.1521 H   0  0  0  0  0  0  0  0  0  0  0  0
   -0.4065   -1.2281   -1.6372 H   0  0  0  0  0  0  0  0  0  0  0  0
   -0.7405   -1.9949   -0.0768 H   0  0  0  0  0  0  0  0  0  0  0  0
   -2.9821   -0.3261    0.9726 H   0  0  0  0  0  0  0  0  0  0  0  0
   -2.0524    1.0244    1.6269 H   0  0  0  0  0  0  0  0  0  0  0  0
   -1.4970   -0.6337    1.8651 H   0  0  0  0  0  0  0  0  0  0  0  0
    0.1760    1.6404   -1.7373 H   0  0  0  0  0  0  0  0  0  0  0  0
  1  2  1  0  0  0  0
  2  3  1  0  0  0  0
  3  4  1  0  0  0  0
  3  5  1  0  0  0  0
  5  6  1  0  0  0  0
  5  7  1  0  0  0  0
  3  8  1  0  0  0  0
  1  9  1  0  0  0  0
  1 10  1  0  0  0  0
  1 11  1  0  0  0  0
  2 12  1  0  0  0  0
  2 13  1  0  0  0  0
  5 14  1  0  0  0  0
  6 15  1  0  0  0  0
  6 16  1  0  0  0  0
  6 17  1  0  0  0  0
  7 18  1  0  0  0  0
  7 19  1  0  0  0  0
  7 20  1  0  0  0  0
  8 21  1  0  0  0  0
M  END
