 xtb: 6.7.1 (edcfbbe)
          04112511203D

 21 20  0     0  0            999 V2000
   -2.2063    1.0485    0.3783 C   0  0  0  0  0  0  0  0  0  0  0  0
   -1.8224   -0.3829    0.0249 C   0  0  0  0  0  0  0  0  0  0  0  0
   -0.5451   -0.5177   -0.8087 C   0  0  0  0  0  0  0  0  0  0  0  0
    0.7743   -0.1357   -0.0972 C   0  0  0  0  0  0  0  0  0  0  0  0
    1.1256    1.3425   -0.3178 C   0  0  0  0  0  0  0  0  0  0  0  0
    1.9133   -0.9982   -0.6637 C   0  0  0  0  0  0  0  0  0  0  0  0
    0.6149   -0.4064    1.2910 O   0  0  0  0  0  0  0  0  0  0  0  0
   -1.5134    1.4608    1.1062 H   0  0  0  0  0  0  0  0  0  0  0  0
   -3.2021    1.0676    0.8159 H   0  0  0  0  0  0  0  0  0  0  0  0
   -2.2088    1.6779   -0.5092 H   0  0  0  0  0  0  0  0  0  0  0  0
   -1.7029   -0.9584    0.9436 H   0  0  0  0  0  0  0  0  0  0  0  0
   -2.6344   -0.8334   -0.5513 H   0  0  0  0  0  0  0  0  0  0  0  0
   -0.4718   -1.5644   -1.1108 H   0  0  0  0  0  0  0  0  0  0  0  0
   -0.6357    0.0849   -1.7135 H   0  0  0  0  0  0  0  0  0  0  0  0
    2.0633    1.5835    0.1800 H   0  0  0  0  0  0  0  0  0  0  0  0
    0.3492    1.9885    0.0784 H   0  0  0  0  0  0  0  0  0  0  0  0
    1.2398    1.5414   -1.3794 H   0  0  0  0  0  0  0  0  0  0  0  0
    1.9551   -0.8989   -1.7445 H   0  0  0  0  0  0  0  0  0  0  0  0
    1.7460   -2.0432   -0.4120 H   0  0  0  0  0  0  0  0  0  0  0  0
    2.8709   -0.6893   -0.2492 H   0  0  0  0  0  0  0  0  0  0  0  0
    1.4481   -0.2143    1.7408 H   0  0  0  0  0  0  0  0  0  0  0  0
  1  2  1  0  0  0  0
  2  3  1  0  0  0  0
  3  4  1  0  0  0  0
  4  5  1  0  0  0  0
  4  6  1  0  0  0  0
  4  7  1  0  0  0  0
  1  8  1  0  0  0  0
  1  9  1  0  0  0  0
  1 10  1  0  0  0  0
  2 11  1  0  0  0  0
  2 12  1  0  0  0  0
  3 13  1  0  0  0  0
  3 14  1  0  0  0  0
  5 15  1  0  0  0  0
  5 16  1  0  0  0  0
  5 17  1  0  0  0  0
  6 18  1  0  0  0  0
  6 19  1  0  0  0  0
  6 20  1  0  0  0  0
  7 21  1  0  0  0  0
M  END
