 xtb: 6.7.1 (edcfbbe)
          04112511443D

 25 25  0     0  0            999 V2000
    1.5106   -0.7869    1.6358 C   0  0  0  0  0  0  0  0  0  0  0  0
    2.2169   -0.1759    0.4634 C   0  0  0  0  0  0  0  0  0  0  0  0
    3.5312   -0.2523    0.3219 C   0  0  0  0  0  0  0  0  0  0  0  0
    1.3650    0.5319   -0.5646 C   0  0  0  0  0  0  0  0  0  0  0  0
    2.0324    1.1197   -1.2000 H   0  0  0  0  0  0  0  0  0  0  0  0
    0.6270   -0.5016   -1.4422 C   0  0  0  0  0  0  0  0  0  0  0  0
   -0.8352   -0.1184   -1.7056 C   0  0  0  0  0  0  0  0  0  0  0  0
   -1.5146    0.0956   -0.3880 C   0  0  0  0  0  0  0  0  0  0  0  0
   -0.8856    0.8826    0.5056 C   0  0  0  0  0  0  0  0  0  0  0  0
    0.3896    1.5250    0.1167 C   0  0  0  0  0  0  0  0  0  0  0  0
   -2.7653   -0.5616   -0.0786 C   0  0  0  0  0  0  0  0  0  0  0  0
   -3.3850   -0.4607    0.9672 O   0  0  0  0  0  0  0  0  0  0  0  0
    2.1535   -1.5036    2.1398 H   0  0  0  0  0  0  0  0  0  0  0  0
    1.2365   -0.0154    2.3541 H   0  0  0  0  0  0  0  0  0  0  0  0
    0.5950   -1.2879    1.3290 H   0  0  0  0  0  0  0  0  0  0  0  0
    4.0435    0.1988   -0.5109 H   0  0  0  0  0  0  0  0  0  0  0  0
    4.1504   -0.7725    1.0329 H   0  0  0  0  0  0  0  0  0  0  0  0
    1.1502   -0.6158   -2.3910 H   0  0  0  0  0  0  0  0  0  0  0  0
    0.6383   -1.4741   -0.9470 H   0  0  0  0  0  0  0  0  0  0  0  0
   -0.8665    0.8054   -2.2883 H   0  0  0  0  0  0  0  0  0  0  0  0
   -1.3301   -0.9018   -2.2796 H   0  0  0  0  0  0  0  0  0  0  0  0
   -1.3119    1.0490    1.4836 H   0  0  0  0  0  0  0  0  0  0  0  0
    0.1533    2.3024   -0.6162 H   0  0  0  0  0  0  0  0  0  0  0  0
    0.8793    2.0038    0.9630 H   0  0  0  0  0  0  0  0  0  0  0  0
   -3.1646   -1.2018   -0.8885 H   0  0  0  0  0  0  0  0  0  0  0  0
  1  2  1  0  0  0  0
  2  3  2  0  0  0  0
  2  4  1  0  0  0  0
  4  5  1  0  0  0  0
  4  6  1  0  0  0  0
  6  7  1  0  0  0  0
  7  8  1  0  0  0  0
  8  9  2  0  0  0  0
  4 10  1  0  0  0  0
  9 10  1  0  0  0  0
  8 11  1  0  0  0  0
 11 12  2  0  0  0  0
  1 13  1  0  0  0  0
  1 14  1  0  0  0  0
  1 15  1  0  0  0  0
  3 16  1  0  0  0  0
  3 17  1  0  0  0  0
  6 18  1  0  0  0  0
  6 19  1  0  0  0  0
  7 20  1  0  0  0  0
  7 21  1  0  0  0  0
  9 22  1  0  0  0  0
 10 23  1  0  0  0  0
 10 24  1  0  0  0  0
 11 25  1  0  0  0  0
M  END
