 xtb: 6.7.1 (edcfbbe)
          04112511173D

 35 35  0     0  0            999 V2000
   -0.2470   -2.8221   -0.1729 C   0  0  0  0  0  0  0  0  0  0  0  0
    0.5230   -1.5472   -0.0466 C   0  0  0  0  0  0  0  0  0  0  0  0
    1.8918   -1.4540   -0.3465 C   0  0  0  0  0  0  0  0  0  0  0  0
    2.5625   -0.3232   -0.2281 N   0  0  0  0  0  0  0  0  0  0  0  0
    1.9066    0.7711    0.1905 C   0  0  0  0  0  0  0  0  0  0  0  0
    0.5911    0.7891    0.4816 N   0  0  0  0  0  0  0  0  0  0  0  0
   -0.0550   -0.3501    0.3526 C   0  0  0  0  0  0  0  0  0  0  0  0
   -1.4052   -0.2967    0.6944 O   0  0  0  0  0  0  0  0  0  0  0  0
   -2.2656   -0.0230   -0.3285 C   0  0  0  0  0  0  0  0  0  0  0  0
   -1.8930    0.0521   -1.4906 O   0  0  0  0  0  0  0  0  0  0  0  0
   -3.5253    0.1272    0.0825 N   0  0  0  0  0  0  0  0  0  0  0  0
   -4.5762    0.3712   -0.8828 C   0  0  0  0  0  0  0  0  0  0  0  0
   -3.9450    0.0379    1.4644 C   0  0  0  0  0  0  0  0  0  0  0  0
    2.5972    1.9069    0.3274 N   0  0  0  0  0  0  0  0  0  0  0  0
    1.9769    3.1361    0.7565 C   0  0  0  0  0  0  0  0  0  0  0  0
    4.0069    1.9812    0.0285 C   0  0  0  0  0  0  0  0  0  0  0  0
    2.6590   -2.6440   -0.8192 C   0  0  0  0  0  0  0  0  0  0  0  0
   -0.3653   -3.0864   -1.2238 H   0  0  0  0  0  0  0  0  0  0  0  0
    0.2743   -3.6339    0.3297 H   0  0  0  0  0  0  0  0  0  0  0  0
   -1.2350   -2.7101    0.2672 H   0  0  0  0  0  0  0  0  0  0  0  0
   -5.0534    1.3288   -0.6745 H   0  0  0  0  0  0  0  0  0  0  0  0
   -5.3191   -0.4245   -0.8263 H   0  0  0  0  0  0  0  0  0  0  0  0
   -4.1358    0.3920   -1.8767 H   0  0  0  0  0  0  0  0  0  0  0  0
   -4.5602   -0.8518    1.6076 H   0  0  0  0  0  0  0  0  0  0  0  0
   -4.5317    0.9216    1.7148 H   0  0  0  0  0  0  0  0  0  0  0  0
   -3.0750   -0.0150    2.1111 H   0  0  0  0  0  0  0  0  0  0  0  0
    2.0838    3.8956   -0.0200 H   0  0  0  0  0  0  0  0  0  0  0  0
    2.4568    3.4919    1.6696 H   0  0  0  0  0  0  0  0  0  0  0  0
    0.9238    2.9527    0.9433 H   0  0  0  0  0  0  0  0  0  0  0  0
    4.5535    2.3049    0.9155 H   0  0  0  0  0  0  0  0  0  0  0  0
    4.1772    2.6997   -0.7751 H   0  0  0  0  0  0  0  0  0  0  0  0
    4.3523    0.9995   -0.2789 H   0  0  0  0  0  0  0  0  0  0  0  0
    3.6789   -2.3504   -1.0436 H   0  0  0  0  0  0  0  0  0  0  0  0
    2.6634   -3.4125   -0.0491 H   0  0  0  0  0  0  0  0  0  0  0  0
    2.1901   -3.0587   -1.7085 H   0  0  0  0  0  0  0  0  0  0  0  0
  1  2  1  0  0  0  0
  2  3  4  0  0  0  0
  3  4  4  0  0  0  0
  4  5  4  0  0  0  0
  5  6  4  0  0  0  0
  2  7  4  0  0  0  0
  6  7  4  0  0  0  0
  7  8  1  0  0  0  0
  8  9  1  0  0  0  0
  9 10  2  0  0  0  0
  9 11  4  0  0  0  0
 11 12  1  0  0  0  0
 11 13  1  0  0  0  0
  5 14  4  0  0  0  0
 14 15  1  0  0  0  0
 14 16  1  0  0  0  0
  3 17  1  0  0  0  0
  1 18  1  0  0  0  0
  1 19  1  0  0  0  0
  1 20  1  0  0  0  0
 12 21  1  0  0  0  0
 12 22  1  0  0  0  0
 12 23  1  0  0  0  0
 13 24  1  0  0  0  0
 13 25  1  0  0  0  0
 13 26  1  0  0  0  0
 15 27  1  0  0  0  0
 15 28  1  0  0  0  0
 15 29  1  0  0  0  0
 16 30  1  0  0  0  0
 16 31  1  0  0  0  0
 16 32  1  0  0  0  0
 17 33  1  0  0  0  0
 17 34  1  0  0  0  0
 17 35  1  0  0  0  0
M  END
