 xtb: 6.7.1 (edcfbbe)
          04112511153D

 29 28  0     0  0            999 V2000
   -2.6447   -0.7965    1.0150 C   0  0  0  0  0  0  0  0  0  0  0  0
   -2.2057    0.1587   -0.0929 C   0  0  0  0  0  0  0  0  0  0  0  0
   -3.1330    0.0089   -1.2988 C   0  0  0  0  0  0  0  0  0  0  0  0
   -0.7523   -0.0908   -0.5175 C   0  0  0  0  0  0  0  0  0  0  0  0
    0.2598    0.3622    0.5336 C   0  0  0  0  0  0  0  0  0  0  0  0
    1.7419    0.1521    0.1698 C   0  0  0  0  0  0  0  0  0  0  0  0
    2.0582   -1.3370    0.0095 C   0  0  0  0  0  0  0  0  0  0  0  0
    2.1073    0.8938   -1.1183 C   0  0  0  0  0  0  0  0  0  0  0  0
    2.5891    0.7142    1.3178 C   0  0  0  0  0  0  0  0  0  0  0  0
   -2.0410   -0.6671    1.9090 H   0  0  0  0  0  0  0  0  0  0  0  0
   -2.5518   -1.8281    0.6815 H   0  0  0  0  0  0  0  0  0  0  0  0
   -3.6837   -0.6146    1.2805 H   0  0  0  0  0  0  0  0  0  0  0  0
   -2.2871    1.1865    0.2797 H   0  0  0  0  0  0  0  0  0  0  0  0
   -2.8676    0.7179   -2.0798 H   0  0  0  0  0  0  0  0  0  0  0  0
   -3.0600   -0.9965   -1.7081 H   0  0  0  0  0  0  0  0  0  0  0  0
   -4.1665    0.1878   -1.0111 H   0  0  0  0  0  0  0  0  0  0  0  0
   -0.6284   -1.1550   -0.7238 H   0  0  0  0  0  0  0  0  0  0  0  0
   -0.5707    0.4550   -1.4446 H   0  0  0  0  0  0  0  0  0  0  0  0
    0.0678   -0.1697    1.4676 H   0  0  0  0  0  0  0  0  0  0  0  0
    0.1015    1.4269    0.7260 H   0  0  0  0  0  0  0  0  0  0  0  0
    1.5372   -1.7577   -0.8463 H   0  0  0  0  0  0  0  0  0  0  0  0
    3.1258   -1.4786   -0.1437 H   0  0  0  0  0  0  0  0  0  0  0  0
    1.7639   -1.8883    0.8997 H   0  0  0  0  0  0  0  0  0  0  0  0
    3.1811    0.8449   -1.2853 H   0  0  0  0  0  0  0  0  0  0  0  0
    1.6134    0.4508   -1.9789 H   0  0  0  0  0  0  0  0  0  0  0  0
    1.8185    1.9404   -1.0522 H   0  0  0  0  0  0  0  0  0  0  0  0
    3.6485    0.5758    1.1139 H   0  0  0  0  0  0  0  0  0  0  0  0
    2.3523    0.2096    2.2520 H   0  0  0  0  0  0  0  0  0  0  0  0
    2.4021    1.7780    1.4465 H   0  0  0  0  0  0  0  0  0  0  0  0
  1  2  1  0  0  0  0
  2  3  1  0  0  0  0
  2  4  1  0  0  0  0
  4  5  1  0  0  0  0
  5  6  1  0  0  0  0
  6  7  1  0  0  0  0
  6  8  1  0  0  0  0
  6  9  1  0  0  0  0
  1 10  1  0  0  0  0
  1 11  1  0  0  0  0
  1 12  1  0  0  0  0
  2 13  1  0  0  0  0
  3 14  1  0  0  0  0
  3 15  1  0  0  0  0
  3 16  1  0  0  0  0
  4 17  1  0  0  0  0
  4 18  1  0  0  0  0
  5 19  1  0  0  0  0
  5 20  1  0  0  0  0
  7 21  1  0  0  0  0
  7 22  1  0  0  0  0
  7 23  1  0  0  0  0
  8 24  1  0  0  0  0
  8 25  1  0  0  0  0
  8 26  1  0  0  0  0
  9 27  1  0  0  0  0
  9 28  1  0  0  0  0
  9 29  1  0  0  0  0
M  END
