 xtb: 6.7.1 (edcfbbe)
          04072507453D

 21 20  0     0  0            999 V2000
    1.4735   -0.9948   -0.7270 C   0  0  0  0  0  0  0  0  0  0  0  0
    1.2612    0.0457    0.3713 C   0  0  0  0  0  0  0  0  0  0  0  0
    1.6308    1.4490   -0.1256 C   0  0  0  0  0  0  0  0  0  0  0  0
   -0.0002   -0.0003    1.0392 O   0  0  0  0  0  0  0  0  0  0  0  0
   -1.2613   -0.0460    0.3709 C   0  0  0  0  0  0  0  0  0  0  0  0
   -1.4733    0.9953   -0.7267 C   0  0  0  0  0  0  0  0  0  0  0  0
   -1.6307   -1.4489   -0.1272 C   0  0  0  0  0  0  0  0  0  0  0  0
    1.2054   -1.9856   -0.3711 H   0  0  0  0  0  0  0  0  0  0  0  0
    0.8903   -0.7603   -1.6132 H   0  0  0  0  0  0  0  0  0  0  0  0
    2.5250   -0.9968   -1.0016 H   0  0  0  0  0  0  0  0  0  0  0  0
    1.9361   -0.1977    1.2043 H   0  0  0  0  0  0  0  0  0  0  0  0
    2.7074    1.5041   -0.2620 H   0  0  0  0  0  0  0  0  0  0  0  0
    1.3354    2.1893    0.6137 H   0  0  0  0  0  0  0  0  0  0  0  0
    1.1519    1.6814   -1.0715 H   0  0  0  0  0  0  0  0  0  0  0  0
   -1.9365    0.1967    1.2039 H   0  0  0  0  0  0  0  0  0  0  0  0
   -0.8900    0.7615   -1.6130 H   0  0  0  0  0  0  0  0  0  0  0  0
   -2.5248    0.9976   -1.0014 H   0  0  0  0  0  0  0  0  0  0  0  0
   -1.2053    1.9859   -0.3700 H   0  0  0  0  0  0  0  0  0  0  0  0
   -1.1514   -1.6806   -1.0730 H   0  0  0  0  0  0  0  0  0  0  0  0
   -2.7072   -1.5040   -0.2640 H   0  0  0  0  0  0  0  0  0  0  0  0
   -1.3355   -2.1897    0.6116 H   0  0  0  0  0  0  0  0  0  0  0  0
  1  2  1  0  0  0  0
  2  3  1  0  0  0  0
  2  4  1  0  0  0  0
  4  5  1  0  0  0  0
  5  6  1  0  0  0  0
  5  7  1  0  0  0  0
  1  8  1  0  0  0  0
  1  9  1  0  0  0  0
  1 10  1  0  0  0  0
  2 11  1  0  0  0  0
  3 12  1  0  0  0  0
  3 13  1  0  0  0  0
  3 14  1  0  0  0  0
  5 15  1  0  0  0  0
  6 16  1  0  0  0  0
  6 17  1  0  0  0  0
  6 18  1  0  0  0  0
  7 19  1  0  0  0  0
  7 20  1  0  0  0  0
  7 21  1  0  0  0  0
M  END
