 xtb: 6.7.1 (edcfbbe)
          04112512193D

 17 16  0     0  0            999 V2000
   -2.3601    0.2687    1.0709 C   0  0  0  0  0  0  0  0  0  0  0  0
   -1.8055    0.5864   -0.3210 C   0  0  0  0  0  0  0  0  0  0  0  0
   -0.5320   -0.1878   -0.5401 C   0  0  0  0  0  0  0  0  0  0  0  0
   -0.4494   -1.2338   -1.1525 O   0  0  0  0  0  0  0  0  0  0  0  0
    0.5032    0.3924    0.0476 O   0  0  0  0  0  0  0  0  0  0  0  0
    1.7790   -0.2651   -0.0348 C   0  0  0  0  0  0  0  0  0  0  0  0
    2.7526    0.4738    0.8627 C   0  0  0  0  0  0  0  0  0  0  0  0
   -3.2896    0.8079    1.2260 H   0  0  0  0  0  0  0  0  0  0  0  0
   -2.5538   -0.7972    1.1659 H   0  0  0  0  0  0  0  0  0  0  0  0
   -1.6479    0.5658    1.8360 H   0  0  0  0  0  0  0  0  0  0  0  0
   -1.5861    1.6505   -0.3956 H   0  0  0  0  0  0  0  0  0  0  0  0
   -2.5220    0.2945   -1.0879 H   0  0  0  0  0  0  0  0  0  0  0  0
    1.6516   -1.3090    0.2703 H   0  0  0  0  0  0  0  0  0  0  0  0
    2.1036   -0.2534   -1.0805 H   0  0  0  0  0  0  0  0  0  0  0  0
    2.8330    1.5101    0.5483 H   0  0  0  0  0  0  0  0  0  0  0  0
    2.4076    0.4457    1.8920 H   0  0  0  0  0  0  0  0  0  0  0  0
    3.7278    0.0025    0.7990 H   0  0  0  0  0  0  0  0  0  0  0  0
  1  2  1  0  0  0  0
  2  3  1  0  0  0  0
  3  4  2  0  0  0  0
  3  5  1  0  0  0  0
  5  6  1  0  0  0  0
  6  7  1  0  0  0  0
  1  8  1  0  0  0  0
  1  9  1  0  0  0  0
  1 10  1  0  0  0  0
  2 11  1  0  0  0  0
  2 12  1  0  0  0  0
  6 13  1  0  0  0  0
  6 14  1  0  0  0  0
  7 15  1  0  0  0  0
  7 16  1  0  0  0  0
  7 17  1  0  0  0  0
M  END
