 xtb: 6.7.1 (edcfbbe)
          04112512203D

 18 17  0     0  0            999 V2000
   -2.0350    0.8385   -0.6471 C   0  0  0  0  0  0  0  0  0  0  0  0
   -1.3199    0.5521    0.6693 C   0  0  0  0  0  0  0  0  0  0  0  0
   -0.0183   -0.2506    0.5344 C   0  0  0  0  0  0  0  0  0  0  0  0
    0.3982   -0.3646    1.5426 H   0  0  0  0  0  0  0  0  0  0  0  0
   -0.2647   -1.6442   -0.0442 C   0  0  0  0  0  0  0  0  0  0  0  0
    1.0263    0.5165   -0.2902 C   0  0  0  0  0  0  0  0  0  0  0  0
    2.3454    0.0493   -0.0929 O   0  0  0  0  0  0  0  0  0  0  0  0
   -1.4064    1.4239   -1.3125 H   0  0  0  0  0  0  0  0  0  0  0  0
   -2.3134   -0.0836   -1.1490 H   0  0  0  0  0  0  0  0  0  0  0  0
   -2.9430    1.4047   -0.4536 H   0  0  0  0  0  0  0  0  0  0  0  0
   -1.9955   -0.0027    1.3242 H   0  0  0  0  0  0  0  0  0  0  0  0
   -1.0920    1.5005    1.1615 H   0  0  0  0  0  0  0  0  0  0  0  0
   -0.5384   -1.5848   -1.0948 H   0  0  0  0  0  0  0  0  0  0  0  0
   -1.0691   -2.1364    0.4966 H   0  0  0  0  0  0  0  0  0  0  0  0
    0.6250   -2.2630    0.0458 H   0  0  0  0  0  0  0  0  0  0  0  0
    1.0495    1.5634    0.0234 H   0  0  0  0  0  0  0  0  0  0  0  0
    0.7735    0.4784   -1.3574 H   0  0  0  0  0  0  0  0  0  0  0  0
    2.4019   -0.8656   -0.3998 H   0  0  0  0  0  0  0  0  0  0  0  0
  1  2  1  0  0  0  0
  2  3  1  0  0  0  0
  3  4  1  0  0  0  0
  3  5  1  0  0  0  0
  3  6  1  0  0  0  0
  6  7  1  0  0  0  0
  1  8  1  0  0  0  0
  1  9  1  0  0  0  0
  1 10  1  0  0  0  0
  2 11  1  0  0  0  0
  2 12  1  0  0  0  0
  5 13  1  0  0  0  0
  5 14  1  0  0  0  0
  5 15  1  0  0  0  0
  6 16  1  0  0  0  0
  6 17  1  0  0  0  0
  7 18  1  0  0  0  0
M  END
