 xtb: 6.7.1 (edcfbbe)
          04112511193D

 14 13  0     0  0            999 V2000
   -1.0815   -0.6188   -0.0221 C   0  0  0  0  0  0  0  0  0  0  0  0
    0.0176    0.2480    0.6228 C   0  0  0  0  0  0  0  0  0  0  0  0
    1.3484   -0.5154    0.6504 C   0  0  0  0  0  0  0  0  0  0  0  0
    1.7985   -0.8397   -0.6413 O   0  0  0  0  0  0  0  0  0  0  0  0
    0.2358    1.4373   -0.1155 O   0  0  0  0  0  0  0  0  0  0  0  0
   -2.2610    0.1118   -0.2781 O   0  0  0  0  0  0  0  0  0  0  0  0
   -1.3547   -1.4152    0.6724 H   0  0  0  0  0  0  0  0  0  0  0  0
   -0.6905   -1.0692   -0.9402 H   0  0  0  0  0  0  0  0  0  0  0  0
   -0.2693    0.4952    1.6533 H   0  0  0  0  0  0  0  0  0  0  0  0
    1.2227   -1.4595    1.1820 H   0  0  0  0  0  0  0  0  0  0  0  0
    2.0944    0.0970    1.1724 H   0  0  0  0  0  0  0  0  0  0  0  0
    1.8657   -0.0134   -1.1439 H   0  0  0  0  0  0  0  0  0  0  0  0
   -0.5265    2.0207   -0.0021 H   0  0  0  0  0  0  0  0  0  0  0  0
   -2.1337    0.6435   -1.0764 H   0  0  0  0  0  0  0  0  0  0  0  0
  1  2  1  0  0  0  0
  2  3  1  0  0  0  0
  3  4  1  0  0  0  0
  2  5  1  0  0  0  0
  1  6  1  0  0  0  0
  1  7  1  0  0  0  0
  1  8  1  0  0  0  0
  2  9  1  0  0  0  0
  3 10  1  0  0  0  0
  3 11  1  0  0  0  0
  4 12  1  0  0  0  0
  5 13  1  0  0  0  0
  6 14  1  0  0  0  0
M  END
