 xtb: 6.7.1 (edcfbbe)
          04112511193D

 14 13  0     0  0            999 V2000
   -1.4401    0.0377    0.6213 C   0  0  0  0  0  0  0  0  0  0  0  0
    0.0664    0.3346    0.5101 C   0  0  0  0  0  0  0  0  0  0  0  0
    0.8184   -0.8842   -0.0436 C   0  0  0  0  0  0  0  0  0  0  0  0
    2.2158   -0.7426   -0.0049 O   0  0  0  0  0  0  0  0  0  0  0  0
    0.2835    1.4193   -0.3721 O   0  0  0  0  0  0  0  0  0  0  0  0
   -2.0068   -0.2840   -0.6256 O   0  0  0  0  0  0  0  0  0  0  0  0
   -1.9507    0.9116    1.0513 H   0  0  0  0  0  0  0  0  0  0  0  0
   -1.6098   -0.8219    1.2712 H   0  0  0  0  0  0  0  0  0  0  0  0
    0.4543    0.5693    1.5114 H   0  0  0  0  0  0  0  0  0  0  0  0
    0.5631   -1.0106   -1.0968 H   0  0  0  0  0  0  0  0  0  0  0  0
    0.5005   -1.7776    0.5081 H   0  0  0  0  0  0  0  0  0  0  0  0
    2.5041   -0.6339    0.9125 H   0  0  0  0  0  0  0  0  0  0  0  0
    0.0455    2.2500    0.0620 H   0  0  0  0  0  0  0  0  0  0  0  0
   -1.7074    0.3787   -1.2676 H   0  0  0  0  0  0  0  0  0  0  0  0
  1  2  1  0  0  0  0
  2  3  1  0  0  0  0
  3  4  1  0  0  0  0
  2  5  1  0  0  0  0
  1  6  1  0  0  0  0
  1  7  1  0  0  0  0
  1  8  1  0  0  0  0
  2  9  1  0  0  0  0
  3 10  1  0  0  0  0
  3 11  1  0  0  0  0
  4 12  1  0  0  0  0
  5 13  1  0  0  0  0
  6 14  1  0  0  0  0
M  END
