 xtb: 6.7.1 (edcfbbe)
          04112511493D

 17 16  0     0  0            999 V2000
   -3.2482    0.4805    0.0533 C   0  0  0  0  0  0  0  0  0  0  0  0
   -1.9407   -0.3002    0.0267 C   0  0  0  0  0  0  0  0  0  0  0  0
   -0.7317    0.6348    0.0047 C   0  0  0  0  0  0  0  0  0  0  0  0
    0.5623   -0.1191   -0.1509 C   0  0  0  0  0  0  0  0  0  0  0  0
    0.6930   -1.1682   -0.7458 O   0  0  0  0  0  0  0  0  0  0  0  0
    1.5651    0.5240    0.4382 O   0  0  0  0  0  0  0  0  0  0  0  0
    2.8851   -0.0251    0.3637 C   0  0  0  0  0  0  0  0  0  0  0  0
   -4.0930   -0.2020    0.0834 H   0  0  0  0  0  0  0  0  0  0  0  0
   -3.2908    1.1210    0.9305 H   0  0  0  0  0  0  0  0  0  0  0  0
   -3.3395    1.1024   -0.8335 H   0  0  0  0  0  0  0  0  0  0  0  0
   -1.9028   -0.9420   -0.8553 H   0  0  0  0  0  0  0  0  0  0  0  0
   -1.8783   -0.9464    0.9044 H   0  0  0  0  0  0  0  0  0  0  0  0
   -0.6755    1.2414    0.9084 H   0  0  0  0  0  0  0  0  0  0  0  0
   -0.8103    1.3109   -0.8509 H   0  0  0  0  0  0  0  0  0  0  0  0
    2.8998   -0.8591   -0.3388 H   0  0  0  0  0  0  0  0  0  0  0  0
    3.1689   -0.3658    1.3582 H   0  0  0  0  0  0  0  0  0  0  0  0
    3.5465    0.7724    0.0328 H   0  0  0  0  0  0  0  0  0  0  0  0
  1  2  1  0  0  0  0
  2  3  1  0  0  0  0
  3  4  1  0  0  0  0
  4  5  2  0  0  0  0
  4  6  1  0  0  0  0
  6  7  1  0  0  0  0
  1  8  1  0  0  0  0
  1  9  1  0  0  0  0
  1 10  1  0  0  0  0
  2 11  1  0  0  0  0
  2 12  1  0  0  0  0
  3 13  1  0  0  0  0
  3 14  1  0  0  0  0
  7 15  1  0  0  0  0
  7 16  1  0  0  0  0
  7 17  1  0  0  0  0
M  END
