 xtb: 6.7.1 (edcfbbe)
          04112511443D

 25 25  0     0  0            999 V2000
    3.4479   -0.0996   -0.9761 C   0  0  0  0  0  0  0  0  0  0  0  0
    2.5438    0.0800    0.2071 C   0  0  0  0  0  0  0  0  0  0  0  0
    3.0143    0.1142    1.4433 C   0  0  0  0  0  0  0  0  0  0  0  0
    1.0789    0.1846   -0.1500 C   0  0  0  0  0  0  0  0  0  0  0  0
    1.0051    0.7794   -1.0670 H   0  0  0  0  0  0  0  0  0  0  0  0
    0.5028   -1.2205   -0.4386 C   0  0  0  0  0  0  0  0  0  0  0  0
   -0.9339   -1.4107    0.0820 C   0  0  0  0  0  0  0  0  0  0  0  0
   -1.7316   -0.1482   -0.0324 C   0  0  0  0  0  0  0  0  0  0  0  0
   -1.1584    0.9863    0.4114 C   0  0  0  0  0  0  0  0  0  0  0  0
    0.2338    0.9171    0.9118 C   0  0  0  0  0  0  0  0  0  0  0  0
   -3.0679   -0.1627   -0.5883 C   0  0  0  0  0  0  0  0  0  0  0  0
   -3.8081    0.8008   -0.6907 O   0  0  0  0  0  0  0  0  0  0  0  0
    4.4786   -0.2374   -0.6623 H   0  0  0  0  0  0  0  0  0  0  0  0
    3.1391   -0.9643   -1.5607 H   0  0  0  0  0  0  0  0  0  0  0  0
    3.3943    0.7745   -1.6238 H   0  0  0  0  0  0  0  0  0  0  0  0
    2.3891    0.2445    2.3080 H   0  0  0  0  0  0  0  0  0  0  0  0
    4.0681    0.0133    1.6409 H   0  0  0  0  0  0  0  0  0  0  0  0
    0.5130   -1.3932   -1.5149 H   0  0  0  0  0  0  0  0  0  0  0  0
    1.1380   -1.9768    0.0250 H   0  0  0  0  0  0  0  0  0  0  0  0
   -1.4165   -2.2279   -0.4538 H   0  0  0  0  0  0  0  0  0  0  0  0
   -0.8882   -1.6860    1.1390 H   0  0  0  0  0  0  0  0  0  0  0  0
   -1.6854    1.9268    0.3589 H   0  0  0  0  0  0  0  0  0  0  0  0
    0.6474    1.9044    1.1083 H   0  0  0  0  0  0  0  0  0  0  0  0
    0.2503    0.3359    1.8367 H   0  0  0  0  0  0  0  0  0  0  0  0
   -3.4126   -1.1537   -0.9404 H   0  0  0  0  0  0  0  0  0  0  0  0
  1  2  1  0  0  0  0
  2  3  2  0  0  0  0
  2  4  1  0  0  0  0
  4  5  1  0  0  0  0
  4  6  1  0  0  0  0
  6  7  1  0  0  0  0
  7  8  1  0  0  0  0
  8  9  2  0  0  0  0
  4 10  1  0  0  0  0
  9 10  1  0  0  0  0
  8 11  1  0  0  0  0
 11 12  2  0  0  0  0
  1 13  1  0  0  0  0
  1 14  1  0  0  0  0
  1 15  1  0  0  0  0
  3 16  1  0  0  0  0
  3 17  1  0  0  0  0
  6 18  1  0  0  0  0
  6 19  1  0  0  0  0
  7 20  1  0  0  0  0
  7 21  1  0  0  0  0
  9 22  1  0  0  0  0
 10 23  1  0  0  0  0
 10 24  1  0  0  0  0
 11 25  1  0  0  0  0
M  END
