 xtb: 6.7.1 (edcfbbe)
          04112511013D

 20 19  0     0  0            999 V2000
   -2.1061   -1.0794   -0.4881 C   0  0  0  0  0  0  0  0  0  0  0  0
   -1.4652    0.0109    0.3639 C   0  0  0  0  0  0  0  0  0  0  0  0
   -0.0651    0.4232   -0.1132 C   0  0  0  0  0  0  0  0  0  0  0  0
    0.3161    1.7636    0.5148 C   0  0  0  0  0  0  0  0  0  0  0  0
    0.9717   -0.6556    0.2223 C   0  0  0  0  0  0  0  0  0  0  0  0
    2.3114   -0.4494   -0.4767 C   0  0  0  0  0  0  0  0  0  0  0  0
   -3.1109   -1.2918   -0.1307 H   0  0  0  0  0  0  0  0  0  0  0  0
   -2.1716   -0.7598   -1.5259 H   0  0  0  0  0  0  0  0  0  0  0  0
   -1.5329   -2.0021   -0.4497 H   0  0  0  0  0  0  0  0  0  0  0  0
   -1.4041   -0.3246    1.4018 H   0  0  0  0  0  0  0  0  0  0  0  0
   -2.1134    0.8899    0.3405 H   0  0  0  0  0  0  0  0  0  0  0  0
   -0.0967    0.5471   -1.2019 H   0  0  0  0  0  0  0  0  0  0  0  0
   -0.4150    2.5262    0.2557 H   0  0  0  0  0  0  0  0  0  0  0  0
    1.2887    2.0970    0.1643 H   0  0  0  0  0  0  0  0  0  0  0  0
    0.3503    1.6756    1.5989 H   0  0  0  0  0  0  0  0  0  0  0  0
    1.1251   -0.6767    1.3039 H   0  0  0  0  0  0  0  0  0  0  0  0
    0.5793   -1.6298   -0.0739 H   0  0  0  0  0  0  0  0  0  0  0  0
    2.7945    0.4652   -0.1438 H   0  0  0  0  0  0  0  0  0  0  0  0
    2.1725   -0.3932   -1.5542 H   0  0  0  0  0  0  0  0  0  0  0  0
    2.9784   -1.2808   -0.2603 H   0  0  0  0  0  0  0  0  0  0  0  0
  1  2  1  0  0  0  0
  2  3  1  0  0  0  0
  3  4  1  0  0  0  0
  3  5  1  0  0  0  0
  5  6  1  0  0  0  0
  1  7  1  0  0  0  0
  1  8  1  0  0  0  0
  1  9  1  0  0  0  0
  2 10  1  0  0  0  0
  2 11  1  0  0  0  0
  3 12  1  0  0  0  0
  4 13  1  0  0  0  0
  4 14  1  0  0  0  0
  4 15  1  0  0  0  0
  5 16  1  0  0  0  0
  5 17  1  0  0  0  0
  6 18  1  0  0  0  0
  6 19  1  0  0  0  0
  6 20  1  0  0  0  0
M  END
