 xtb: 6.7.1 (edcfbbe)
          04112511173D

 35 35  0     0  0            999 V2000
    0.2206   -3.3769    0.1201 C   0  0  0  0  0  0  0  0  0  0  0  0
    0.6808   -1.9552    0.0657 C   0  0  0  0  0  0  0  0  0  0  0  0
    2.0227   -1.5891   -0.0789 C   0  0  0  0  0  0  0  0  0  0  0  0
    2.4149   -0.3240   -0.1232 N   0  0  0  0  0  0  0  0  0  0  0  0
    1.4817    0.6319   -0.0268 C   0  0  0  0  0  0  0  0  0  0  0  0
    0.1640    0.3848    0.1071 N   0  0  0  0  0  0  0  0  0  0  0  0
   -0.2029   -0.8808    0.1542 C   0  0  0  0  0  0  0  0  0  0  0  0
   -1.5444   -1.1248    0.2667 O   0  0  0  0  0  0  0  0  0  0  0  0
   -2.2956   -0.0004    0.6192 C   0  0  0  0  0  0  0  0  0  0  0  0
   -2.4767    0.2531    1.7961 O   0  0  0  0  0  0  0  0  0  0  0  0
   -2.8063    0.6672   -0.4061 N   0  0  0  0  0  0  0  0  0  0  0  0
   -3.5719    1.8735   -0.1690 C   0  0  0  0  0  0  0  0  0  0  0  0
   -2.5439    0.3529   -1.7938 C   0  0  0  0  0  0  0  0  0  0  0  0
    1.8685    1.9116   -0.0801 N   0  0  0  0  0  0  0  0  0  0  0  0
    3.2519    2.2815   -0.2548 C   0  0  0  0  0  0  0  0  0  0  0  0
    0.9276    2.9984    0.0399 C   0  0  0  0  0  0  0  0  0  0  0  0
    3.0928   -2.6248   -0.1924 C   0  0  0  0  0  0  0  0  0  0  0  0
    0.4179   -3.8799   -0.8257 H   0  0  0  0  0  0  0  0  0  0  0  0
    0.7448   -3.9168    0.9068 H   0  0  0  0  0  0  0  0  0  0  0  0
   -0.8469   -3.4082    0.3210 H   0  0  0  0  0  0  0  0  0  0  0  0
   -3.0733    2.7195   -0.6415 H   0  0  0  0  0  0  0  0  0  0  0  0
   -3.6379    2.0380    0.9035 H   0  0  0  0  0  0  0  0  0  0  0  0
   -4.5726    1.7607   -0.5848 H   0  0  0  0  0  0  0  0  0  0  0  0
   -2.2421   -0.6863   -1.8938 H   0  0  0  0  0  0  0  0  0  0  0  0
   -1.7501    0.9954   -2.1799 H   0  0  0  0  0  0  0  0  0  0  0  0
   -3.4555    0.5196   -2.3642 H   0  0  0  0  0  0  0  0  0  0  0  0
    3.8424    1.3776   -0.3646 H   0  0  0  0  0  0  0  0  0  0  0  0
    3.5998    2.8443    0.6133 H   0  0  0  0  0  0  0  0  0  0  0  0
    3.3558    2.9031   -1.1455 H   0  0  0  0  0  0  0  0  0  0  0  0
   -0.0459    2.5945    0.3030 H   0  0  0  0  0  0  0  0  0  0  0  0
    0.8588    3.5426   -0.9043 H   0  0  0  0  0  0  0  0  0  0  0  0
    1.2600    3.6839    0.8206 H   0  0  0  0  0  0  0  0  0  0  0  0
    4.0538   -2.1392   -0.3240 H   0  0  0  0  0  0  0  0  0  0  0  0
    3.1142   -3.2360    0.7074 H   0  0  0  0  0  0  0  0  0  0  0  0
    2.8911   -3.2778   -1.0384 H   0  0  0  0  0  0  0  0  0  0  0  0
  1  2  1  0  0  0  0
  2  3  4  0  0  0  0
  3  4  4  0  0  0  0
  4  5  4  0  0  0  0
  5  6  4  0  0  0  0
  2  7  4  0  0  0  0
  6  7  4  0  0  0  0
  7  8  1  0  0  0  0
  8  9  1  0  0  0  0
  9 10  2  0  0  0  0
  9 11  4  0  0  0  0
 11 12  1  0  0  0  0
 11 13  1  0  0  0  0
  5 14  4  0  0  0  0
 14 15  1  0  0  0  0
 14 16  1  0  0  0  0
  3 17  1  0  0  0  0
  1 18  1  0  0  0  0
  1 19  1  0  0  0  0
  1 20  1  0  0  0  0
 12 21  1  0  0  0  0
 12 22  1  0  0  0  0
 12 23  1  0  0  0  0
 13 24  1  0  0  0  0
 13 25  1  0  0  0  0
 13 26  1  0  0  0  0
 15 27  1  0  0  0  0
 15 28  1  0  0  0  0
 15 29  1  0  0  0  0
 16 30  1  0  0  0  0
 16 31  1  0  0  0  0
 16 32  1  0  0  0  0
 17 33  1  0  0  0  0
 17 34  1  0  0  0  0
 17 35  1  0  0  0  0
M  END
