 xtb: 6.7.1 (edcfbbe)
          04112512223D

 23 22  0     0  0            999 V2000
   -2.5162    0.5665    0.6548 C   0  0  0  0  0  0  0  0  0  0  0  0
   -1.3383   -0.2120    0.0704 C   0  0  0  0  0  0  0  0  0  0  0  0
   -1.5360   -0.4007   -1.4321 C   0  0  0  0  0  0  0  0  0  0  0  0
   -0.0229    0.5150    0.3741 C   0  0  0  0  0  0  0  0  0  0  0  0
    1.2377   -0.3190    0.0688 C   0  0  0  0  0  0  0  0  0  0  0  0
    2.0838    0.3325   -1.0240 C   0  0  0  0  0  0  0  0  0  0  0  0
    2.0784   -0.5202    1.3292 C   0  0  0  0  0  0  0  0  0  0  0  0
   -2.5652    1.5613    0.2171 H   0  0  0  0  0  0  0  0  0  0  0  0
   -3.4528    0.0542    0.4477 H   0  0  0  0  0  0  0  0  0  0  0  0
   -2.4132    0.6703    1.7325 H   0  0  0  0  0  0  0  0  0  0  0  0
   -1.3063   -1.1988    0.5470 H   0  0  0  0  0  0  0  0  0  0  0  0
   -0.7158   -0.9656   -1.8673 H   0  0  0  0  0  0  0  0  0  0  0  0
   -2.4613   -0.9378   -1.6287 H   0  0  0  0  0  0  0  0  0  0  0  0
   -1.5893    0.5665   -1.9280 H   0  0  0  0  0  0  0  0  0  0  0  0
   -0.0211    0.7912    1.4304 H   0  0  0  0  0  0  0  0  0  0  0  0
    0.0003    1.4434   -0.2000 H   0  0  0  0  0  0  0  0  0  0  0  0
    0.9288   -1.3087   -0.2847 H   0  0  0  0  0  0  0  0  0  0  0  0
    2.9473   -0.2865   -1.2587 H   0  0  0  0  0  0  0  0  0  0  0  0
    1.5017    0.4671   -1.9325 H   0  0  0  0  0  0  0  0  0  0  0  0
    2.4408    1.3062   -0.6948 H   0  0  0  0  0  0  0  0  0  0  0  0
    2.9500   -1.1344    1.1129 H   0  0  0  0  0  0  0  0  0  0  0  0
    2.4219    0.4382    1.7132 H   0  0  0  0  0  0  0  0  0  0  0  0
    1.4951   -1.0147    2.1026 H   0  0  0  0  0  0  0  0  0  0  0  0
  1  2  1  0  0  0  0
  2  3  1  0  0  0  0
  2  4  1  0  0  0  0
  4  5  1  0  0  0  0
  5  6  1  0  0  0  0
  5  7  1  0  0  0  0
  1  8  1  0  0  0  0
  1  9  1  0  0  0  0
  1 10  1  0  0  0  0
  2 11  1  0  0  0  0
  3 12  1  0  0  0  0
  3 13  1  0  0  0  0
  3 14  1  0  0  0  0
  4 15  1  0  0  0  0
  4 16  1  0  0  0  0
  5 17  1  0  0  0  0
  6 18  1  0  0  0  0
  6 19  1  0  0  0  0
  6 20  1  0  0  0  0
  7 21  1  0  0  0  0
  7 22  1  0  0  0  0
  7 23  1  0  0  0  0
M  END
