 xtb: 6.7.1 (edcfbbe)
          04112511193D

 14 13  0     0  0            999 V2000
   -1.0558   -0.5260   -0.2416 C   0  0  0  0  0  0  0  0  0  0  0  0
    0.0103    0.2205    0.5731 C   0  0  0  0  0  0  0  0  0  0  0  0
    1.3241   -0.5813    0.6077 C   0  0  0  0  0  0  0  0  0  0  0  0
    1.8410   -0.8008   -0.6823 O   0  0  0  0  0  0  0  0  0  0  0  0
    0.2245    1.4788   -0.0373 O   0  0  0  0  0  0  0  0  0  0  0  0
   -2.3300    0.0609   -0.1642 O   0  0  0  0  0  0  0  0  0  0  0  0
   -1.0861   -1.5719    0.0881 H   0  0  0  0  0  0  0  0  0  0  0  0
   -0.7804   -0.4967   -1.2970 H   0  0  0  0  0  0  0  0  0  0  0  0
   -0.3515    0.3491    1.6030 H   0  0  0  0  0  0  0  0  0  0  0  0
    1.1553   -1.5656    1.0469 H   0  0  0  0  0  0  0  0  0  0  0  0
    2.0612   -0.0429    1.2210 H   0  0  0  0  0  0  0  0  0  0  0  0
    1.8254    0.0460   -1.1552 H   0  0  0  0  0  0  0  0  0  0  0  0
    0.6886    2.0670    0.5741 H   0  0  0  0  0  0  0  0  0  0  0  0
   -2.6339    0.0523    0.7546 H   0  0  0  0  0  0  0  0  0  0  0  0
  1  2  1  0  0  0  0
  2  3  1  0  0  0  0
  3  4  1  0  0  0  0
  2  5  1  0  0  0  0
  1  6  1  0  0  0  0
  1  7  1  0  0  0  0
  1  8  1  0  0  0  0
  2  9  1  0  0  0  0
  3 10  1  0  0  0  0
  3 11  1  0  0  0  0
  4 12  1  0  0  0  0
  5 13  1  0  0  0  0
  6 14  1  0  0  0  0
M  END
