 xtb: 6.7.1 (edcfbbe)
          04112511013D

 20 19  0     0  0            999 V2000
   -1.6480   -1.2524   -0.5903 C   0  0  0  0  0  0  0  0  0  0  0  0
   -1.3910    0.0102    0.2238 C   0  0  0  0  0  0  0  0  0  0  0  0
   -0.0091    0.6330   -0.0114 C   0  0  0  0  0  0  0  0  0  0  0  0
    0.0727    1.9697    0.7278 C   0  0  0  0  0  0  0  0  0  0  0  0
    1.1377   -0.2968    0.4282 C   0  0  0  0  0  0  0  0  0  0  0  0
    1.8207   -1.0038   -0.7384 C   0  0  0  0  0  0  0  0  0  0  0  0
   -2.6692   -1.5944   -0.4371 H   0  0  0  0  0  0  0  0  0  0  0  0
   -1.5087   -1.0560   -1.6512 H   0  0  0  0  0  0  0  0  0  0  0  0
   -0.9760   -2.0531   -0.2937 H   0  0  0  0  0  0  0  0  0  0  0  0
   -1.5024   -0.2155    1.2873 H   0  0  0  0  0  0  0  0  0  0  0  0
   -2.1511    0.7518   -0.0345 H   0  0  0  0  0  0  0  0  0  0  0  0
    0.0960    0.8321   -1.0837 H   0  0  0  0  0  0  0  0  0  0  0  0
    1.0236    2.4590    0.5305 H   0  0  0  0  0  0  0  0  0  0  0  0
   -0.0201    1.8143    1.8008 H   0  0  0  0  0  0  0  0  0  0  0  0
   -0.7263    2.6351    0.4081 H   0  0  0  0  0  0  0  0  0  0  0  0
    1.8913    0.2896    0.9581 H   0  0  0  0  0  0  0  0  0  0  0  0
    0.7574   -1.0397    1.1320 H   0  0  0  0  0  0  0  0  0  0  0  0
    2.6136   -1.6536   -0.3741 H   0  0  0  0  0  0  0  0  0  0  0  0
    2.2614   -0.2752   -1.4156 H   0  0  0  0  0  0  0  0  0  0  0  0
    1.1141   -1.6078   -1.3007 H   0  0  0  0  0  0  0  0  0  0  0  0
  1  2  1  0  0  0  0
  2  3  1  0  0  0  0
  3  4  1  0  0  0  0
  3  5  1  0  0  0  0
  5  6  1  0  0  0  0
  1  7  1  0  0  0  0
  1  8  1  0  0  0  0
  1  9  1  0  0  0  0
  2 10  1  0  0  0  0
  2 11  1  0  0  0  0
  3 12  1  0  0  0  0
  4 13  1  0  0  0  0
  4 14  1  0  0  0  0
  4 15  1  0  0  0  0
  5 16  1  0  0  0  0
  5 17  1  0  0  0  0
  6 18  1  0  0  0  0
  6 19  1  0  0  0  0
  6 20  1  0  0  0  0
M  END
