 xtb: 6.7.1 (edcfbbe)
          04112511493D

 21 20  0     0  0            999 V2000
    2.3145    0.5403   -0.8346 C   0  0  0  0  0  0  0  0  0  0  0  0
    1.0619   -0.1389   -0.2767 C   0  0  0  0  0  0  0  0  0  0  0  0
    0.6339   -0.7843   -1.0592 H   0  0  0  0  0  0  0  0  0  0  0  0
    0.0288    0.9078    0.1595 C   0  0  0  0  0  0  0  0  0  0  0  0
   -1.4344    0.4417    0.1875 C   0  0  0  0  0  0  0  0  0  0  0  0
   -1.9754    0.1764   -1.2170 C   0  0  0  0  0  0  0  0  0  0  0  0
   -1.6327   -0.7795    1.0808 C   0  0  0  0  0  0  0  0  0  0  0  0
    1.3801   -0.9331    0.8566 O   0  0  0  0  0  0  0  0  0  0  0  0
    2.7426    1.1990   -0.0827 H   0  0  0  0  0  0  0  0  0  0  0  0
    3.0596   -0.2017   -1.1144 H   0  0  0  0  0  0  0  0  0  0  0  0
    2.0621    1.1233   -1.7153 H   0  0  0  0  0  0  0  0  0  0  0  0
    0.3147    1.2331    1.1621 H   0  0  0  0  0  0  0  0  0  0  0  0
    0.1013    1.7669   -0.5091 H   0  0  0  0  0  0  0  0  0  0  0  0
   -2.0125    1.2704    0.6146 H   0  0  0  0  0  0  0  0  0  0  0  0
   -1.4762   -0.6739   -1.6748 H   0  0  0  0  0  0  0  0  0  0  0  0
   -1.8312    1.0459   -1.8540 H   0  0  0  0  0  0  0  0  0  0  0  0
   -3.0392   -0.0437   -1.1707 H   0  0  0  0  0  0  0  0  0  0  0  0
   -1.1176   -1.6437    0.6706 H   0  0  0  0  0  0  0  0  0  0  0  0
   -1.2322   -0.5926    2.0738 H   0  0  0  0  0  0  0  0  0  0  0  0
   -2.6907   -1.0165    1.1683 H   0  0  0  0  0  0  0  0  0  0  0  0
    2.0881   -1.5484    0.6248 H   0  0  0  0  0  0  0  0  0  0  0  0
  1  2  1  0  0  0  0
  2  3  1  0  0  0  0
  2  4  1  0  0  0  0
  4  5  1  0  0  0  0
  5  6  1  0  0  0  0
  5  7  1  0  0  0  0
  2  8  1  0  0  0  0
  1  9  1  0  0  0  0
  1 10  1  0  0  0  0
  1 11  1  0  0  0  0
  4 12  1  0  0  0  0
  4 13  1  0  0  0  0
  5 14  1  0  0  0  0
  6 15  1  0  0  0  0
  6 16  1  0  0  0  0
  6 17  1  0  0  0  0
  7 18  1  0  0  0  0
  7 19  1  0  0  0  0
  7 20  1  0  0  0  0
  8 21  1  0  0  0  0
M  END
