 xtb: 6.7.1 (edcfbbe)
          04112511393D

 22 22  0     0  0            999 V2000
   -4.1533    1.3780   -0.3883 C   0  0  0  0  0  0  0  0  0  0  0  0
   -3.4805    0.1837    0.2650 C   0  0  0  0  0  0  0  0  0  0  0  0
   -2.0593    0.3843    0.2471 O   0  0  0  0  0  0  0  0  0  0  0  0
   -1.2677   -0.6676    0.0402 C   0  0  0  0  0  0  0  0  0  0  0  0
   -1.6964   -1.7997   -0.1200 O   0  0  0  0  0  0  0  0  0  0  0  0
    0.1603   -0.3179    0.0237 C   0  0  0  0  0  0  0  0  0  0  0  0
    0.6008    0.9919    0.2142 C   0  0  0  0  0  0  0  0  0  0  0  0
    1.9480    1.2818    0.1937 C   0  0  0  0  0  0  0  0  0  0  0  0
    2.8827    0.2677   -0.0180 C   0  0  0  0  0  0  0  0  0  0  0  0
    2.4436   -1.0449   -0.2097 C   0  0  0  0  0  0  0  0  0  0  0  0
    1.0987   -1.3309   -0.1881 C   0  0  0  0  0  0  0  0  0  0  0  0
    4.2084    0.5001   -0.0467 O   0  0  0  0  0  0  0  0  0  0  0  0
   -3.8402    1.4655   -1.4250 H   0  0  0  0  0  0  0  0  0  0  0  0
   -5.2296    1.2465   -0.3503 H   0  0  0  0  0  0  0  0  0  0  0  0
   -3.8843    2.2890    0.1380 H   0  0  0  0  0  0  0  0  0  0  0  0
   -3.7071   -0.7500   -0.2602 H   0  0  0  0  0  0  0  0  0  0  0  0
   -3.7845    0.0829    1.3116 H   0  0  0  0  0  0  0  0  0  0  0  0
   -0.1223    1.7741    0.3783 H   0  0  0  0  0  0  0  0  0  0  0  0
    2.2799    2.2983    0.3426 H   0  0  0  0  0  0  0  0  0  0  0  0
    3.1784   -1.8166   -0.3722 H   0  0  0  0  0  0  0  0  0  0  0  0
    0.7431   -2.3394   -0.3338 H   0  0  0  0  0  0  0  0  0  0  0  0
    4.4072    1.4395    0.0965 H   0  0  0  0  0  0  0  0  0  0  0  0
  1  2  1  0  0  0  0
  2  3  1  0  0  0  0
  3  4  1  0  0  0  0
  4  5  2  0  0  0  0
  4  6  1  0  0  0  0
  6  7  4  0  0  0  0
  7  8  4  0  0  0  0
  8  9  4  0  0  0  0
  9 10  4  0  0  0  0
  6 11  4  0  0  0  0
 10 11  4  0  0  0  0
  9 12  1  0  0  0  0
  1 13  1  0  0  0  0
  1 14  1  0  0  0  0
  1 15  1  0  0  0  0
  2 16  1  0  0  0  0
  2 17  1  0  0  0  0
  7 18  1  0  0  0  0
  8 19  1  0  0  0  0
 10 20  1  0  0  0  0
 11 21  1  0  0  0  0
 12 22  1  0  0  0  0
M  END
