 xtb: 6.7.1 (edcfbbe)
          04112511193D

 14 13  0     0  0            999 V2000
   -1.2098    0.1847   -0.4807 C   0  0  0  0  0  0  0  0  0  0  0  0
   -0.0456    0.4324    0.4960 C   0  0  0  0  0  0  0  0  0  0  0  0
    0.9600   -0.7356    0.5340 C   0  0  0  0  0  0  0  0  0  0  0  0
    1.8341   -0.7591   -0.5684 O   0  0  0  0  0  0  0  0  0  0  0  0
    0.5717    1.6330    0.0880 O   0  0  0  0  0  0  0  0  0  0  0  0
   -2.1777   -0.7008    0.0224 O   0  0  0  0  0  0  0  0  0  0  0  0
   -0.8281   -0.1547   -1.4513 H   0  0  0  0  0  0  0  0  0  0  0  0
   -1.7195    1.1384   -0.6345 H   0  0  0  0  0  0  0  0  0  0  0  0
   -0.4799    0.5441    1.5030 H   0  0  0  0  0  0  0  0  0  0  0  0
    0.4128   -1.6843    0.6187 H   0  0  0  0  0  0  0  0  0  0  0  0
    1.6067   -0.6386    1.4095 H   0  0  0  0  0  0  0  0  0  0  0  0
    1.3272   -0.7091   -1.3904 H   0  0  0  0  0  0  0  0  0  0  0  0
    1.3896    1.7625    0.5890 H   0  0  0  0  0  0  0  0  0  0  0  0
   -1.8107   -1.5939    0.0820 H   0  0  0  0  0  0  0  0  0  0  0  0
  1  2  1  0  0  0  0
  2  3  1  0  0  0  0
  3  4  1  0  0  0  0
  2  5  1  0  0  0  0
  1  6  1  0  0  0  0
  1  7  1  0  0  0  0
  1  8  1  0  0  0  0
  2  9  1  0  0  0  0
  3 10  1  0  0  0  0
  3 11  1  0  0  0  0
  4 12  1  0  0  0  0
  5 13  1  0  0  0  0
  6 14  1  0  0  0  0
M  END
