 xtb: 6.7.1 (edcfbbe)
          04112511583D

 18 17  0     0  0            999 V2000
   -1.7662    0.4827   -0.8736 C   0  0  0  0  0  0  0  0  0  0  0  0
   -1.1482    0.5988    0.5178 C   0  0  0  0  0  0  0  0  0  0  0  0
    0.0299   -0.3669    0.7856 C   0  0  0  0  0  0  0  0  0  0  0  0
    1.4112    0.2546    0.5081 C   0  0  0  0  0  0  0  0  0  0  0  0
    1.6208    0.7916   -0.9039 C   0  0  0  0  0  0  0  0  0  0  0  0
   -0.1249   -1.6125    0.1322 O   0  0  0  0  0  0  0  0  0  0  0  0
   -2.1738   -0.5148   -1.0210 H   0  0  0  0  0  0  0  0  0  0  0  0
   -2.5812    1.1966   -0.9659 H   0  0  0  0  0  0  0  0  0  0  0  0
   -1.0443    0.6896   -1.6582 H   0  0  0  0  0  0  0  0  0  0  0  0
   -0.7994    1.6178    0.6885 H   0  0  0  0  0  0  0  0  0  0  0  0
   -1.9324    0.3917    1.2485 H   0  0  0  0  0  0  0  0  0  0  0  0
    0.0126   -0.6318    1.8508 H   0  0  0  0  0  0  0  0  0  0  0  0
    1.5644    1.0616    1.2264 H   0  0  0  0  0  0  0  0  0  0  0  0
    2.1572   -0.5176    0.7116 H   0  0  0  0  0  0  0  0  0  0  0  0
    1.4520    0.0194   -1.6509 H   0  0  0  0  0  0  0  0  0  0  0  0
    0.9609    1.6310   -1.1045 H   0  0  0  0  0  0  0  0  0  0  0  0
    2.6465    1.1373   -1.0095 H   0  0  0  0  0  0  0  0  0  0  0  0
   -0.0379   -1.4685   -0.8201 H   0  0  0  0  0  0  0  0  0  0  0  0
  1  2  1  0  0  0  0
  2  3  1  0  0  0  0
  3  4  1  0  0  0  0
  4  5  1  0  0  0  0
  3  6  1  0  0  0  0
  1  7  1  0  0  0  0
  1  8  1  0  0  0  0
  1  9  1  0  0  0  0
  2 10  1  0  0  0  0
  2 11  1  0  0  0  0
  3 12  1  0  0  0  0
  4 13  1  0  0  0  0
  4 14  1  0  0  0  0
  5 15  1  0  0  0  0
  5 16  1  0  0  0  0
  5 17  1  0  0  0  0
  6 18  1  0  0  0  0
M  END
