 xtb: 6.7.1 (edcfbbe)
          04112512203D

 18 17  0     0  0            999 V2000
   -2.3857    0.7504    0.0751 C   0  0  0  0  0  0  0  0  0  0  0  0
   -0.8797    0.8486   -0.1430 C   0  0  0  0  0  0  0  0  0  0  0  0
   -0.1094   -0.3240    0.4793 C   0  0  0  0  0  0  0  0  0  0  0  0
   -0.4997   -0.4987    1.4876 H   0  0  0  0  0  0  0  0  0  0  0  0
   -0.2579   -1.6018   -0.3434 C   0  0  0  0  0  0  0  0  0  0  0  0
    1.3811    0.0199    0.6407 C   0  0  0  0  0  0  0  0  0  0  0  0
    2.0552    0.2494   -0.5776 O   0  0  0  0  0  0  0  0  0  0  0  0
   -2.8836    1.6164   -0.3542 H   0  0  0  0  0  0  0  0  0  0  0  0
   -2.7926   -0.1413   -0.3941 H   0  0  0  0  0  0  0  0  0  0  0  0
   -2.6148    0.7141    1.1378 H   0  0  0  0  0  0  0  0  0  0  0  0
   -0.5272    1.7813    0.3056 H   0  0  0  0  0  0  0  0  0  0  0  0
   -0.6783    0.8867   -1.2155 H   0  0  0  0  0  0  0  0  0  0  0  0
    0.2297   -1.4802   -1.3082 H   0  0  0  0  0  0  0  0  0  0  0  0
   -1.3044   -1.8417   -0.5059 H   0  0  0  0  0  0  0  0  0  0  0  0
    0.2107   -2.4374    0.1709 H   0  0  0  0  0  0  0  0  0  0  0  0
    1.9038   -0.8229    1.1001 H   0  0  0  0  0  0  0  0  0  0  0  0
    1.4893    0.8920    1.3010 H   0  0  0  0  0  0  0  0  0  0  0  0
    1.6752    1.0303   -1.0019 H   0  0  0  0  0  0  0  0  0  0  0  0
  1  2  1  0  0  0  0
  2  3  1  0  0  0  0
  3  4  1  0  0  0  0
  3  5  1  0  0  0  0
  3  6  1  0  0  0  0
  6  7  1  0  0  0  0
  1  8  1  0  0  0  0
  1  9  1  0  0  0  0
  1 10  1  0  0  0  0
  2 11  1  0  0  0  0
  2 12  1  0  0  0  0
  5 13  1  0  0  0  0
  5 14  1  0  0  0  0
  5 15  1  0  0  0  0
  6 16  1  0  0  0  0
  6 17  1  0  0  0  0
  7 18  1  0  0  0  0
M  END
