 xtb: 6.7.1 (edcfbbe)
          04112511403D

 22 23  0     0  0            999 V2000
   -3.2190    0.9622   -0.0463 C   0  0  0  0  0  0  0  0  0  0  0  0
   -2.6836    0.5672    1.1680 C   0  0  0  0  0  0  0  0  0  0  0  0
   -1.5547   -0.2327    1.2007 C   0  0  0  0  0  0  0  0  0  0  0  0
   -0.9523   -0.6469    0.0203 C   0  0  0  0  0  0  0  0  0  0  0  0
   -1.4926   -0.2442   -1.1939 C   0  0  0  0  0  0  0  0  0  0  0  0
   -2.6221    0.5546   -1.2275 C   0  0  0  0  0  0  0  0  0  0  0  0
    0.3095   -1.4768    0.0538 C   0  0  0  0  0  0  0  0  0  0  0  0
    1.4714   -0.6168    0.0415 N   0  0  0  0  0  0  0  0  0  0  0  0
    2.0404   -0.0081    1.1220 C   0  0  0  0  0  0  0  0  0  0  0  0
    3.0518    0.7660    0.6320 C   0  0  0  0  0  0  0  0  0  0  0  0
    3.1104    0.6516   -0.7231 N   0  0  0  0  0  0  0  0  0  0  0  0
    2.1480   -0.1768   -1.0395 C   0  0  0  0  0  0  0  0  0  0  0  0
   -4.0993    1.5862   -0.0723 H   0  0  0  0  0  0  0  0  0  0  0  0
   -3.1452    0.8829    2.0912 H   0  0  0  0  0  0  0  0  0  0  0  0
   -1.1420   -0.5396    2.1506 H   0  0  0  0  0  0  0  0  0  0  0  0
   -1.0284   -0.5584   -2.1172 H   0  0  0  0  0  0  0  0  0  0  0  0
   -3.0361    0.8595   -2.1766 H   0  0  0  0  0  0  0  0  0  0  0  0
    0.3405   -2.0858    0.9600 H   0  0  0  0  0  0  0  0  0  0  0  0
    0.3593   -2.1278   -0.8216 H   0  0  0  0  0  0  0  0  0  0  0  0
    1.6964   -0.1757    2.1208 H   0  0  0  0  0  0  0  0  0  0  0  0
    3.7416    1.3929    1.1603 H   0  0  0  0  0  0  0  0  0  0  0  0
    1.9231   -0.4867   -2.0401 H   0  0  0  0  0  0  0  0  0  0  0  0
  1  2  4  0  0  0  0
  2  3  4  0  0  0  0
  3  4  4  0  0  0  0
  4  5  4  0  0  0  0
  1  6  4  0  0  0  0
  5  6  4  0  0  0  0
  4  7  1  0  0  0  0
  7  8  1  0  0  0  0
  8  9  4  0  0  0  0
  9 10  2  0  0  0  0
 10 11  4  0  0  0  0
  8 12  4  0  0  0  0
 11 12  2  0  0  0  0
  1 13  1  0  0  0  0
  2 14  1  0  0  0  0
  3 15  1  0  0  0  0
  5 16  1  0  0  0  0
  6 17  1  0  0  0  0
  7 18  1  0  0  0  0
  7 19  1  0  0  0  0
  9 20  1  0  0  0  0
 10 21  1  0  0  0  0
 12 22  1  0  0  0  0
M  END
