 xtb: 6.7.1 (edcfbbe)
          04112511493D

 21 20  0     0  0            999 V2000
    2.4295   -0.1307   -0.9086 C   0  0  0  0  0  0  0  0  0  0  0  0
    1.2536   -0.2694    0.0546 C   0  0  0  0  0  0  0  0  0  0  0  0
    1.0801   -1.3401    0.2461 H   0  0  0  0  0  0  0  0  0  0  0  0
   -0.0112    0.3672   -0.5374 C   0  0  0  0  0  0  0  0  0  0  0  0
   -1.3094    0.0536    0.2178 C   0  0  0  0  0  0  0  0  0  0  0  0
   -2.4158    0.9991   -0.2492 C   0  0  0  0  0  0  0  0  0  0  0  0
   -1.7457   -1.3957    0.0110 C   0  0  0  0  0  0  0  0  0  0  0  0
    1.6425    0.3562    1.2692 O   0  0  0  0  0  0  0  0  0  0  0  0
    3.3281   -0.5277   -0.4445 H   0  0  0  0  0  0  0  0  0  0  0  0
    2.2300   -0.6731   -1.8273 H   0  0  0  0  0  0  0  0  0  0  0  0
    2.5949    0.9191   -1.1357 H   0  0  0  0  0  0  0  0  0  0  0  0
    0.1456    1.4486   -0.5496 H   0  0  0  0  0  0  0  0  0  0  0  0
   -0.1150    0.0315   -1.5703 H   0  0  0  0  0  0  0  0  0  0  0  0
   -1.1524    0.2205    1.2899 H   0  0  0  0  0  0  0  0  0  0  0  0
   -3.3444    0.7879    0.2758 H   0  0  0  0  0  0  0  0  0  0  0  0
   -2.5888    0.8773   -1.3161 H   0  0  0  0  0  0  0  0  0  0  0  0
   -2.1430    2.0349   -0.0612 H   0  0  0  0  0  0  0  0  0  0  0  0
   -0.9891   -2.0920    0.3630 H   0  0  0  0  0  0  0  0  0  0  0  0
   -2.6663   -1.5926    0.5553 H   0  0  0  0  0  0  0  0  0  0  0  0
   -1.9234   -1.5874   -1.0448 H   0  0  0  0  0  0  0  0  0  0  0  0
    0.9091    0.3190    1.8967 H   0  0  0  0  0  0  0  0  0  0  0  0
  1  2  1  0  0  0  0
  2  3  1  0  0  0  0
  2  4  1  0  0  0  0
  4  5  1  0  0  0  0
  5  6  1  0  0  0  0
  5  7  1  0  0  0  0
  2  8  1  0  0  0  0
  1  9  1  0  0  0  0
  1 10  1  0  0  0  0
  1 11  1  0  0  0  0
  4 12  1  0  0  0  0
  4 13  1  0  0  0  0
  5 14  1  0  0  0  0
  6 15  1  0  0  0  0
  6 16  1  0  0  0  0
  6 17  1  0  0  0  0
  7 18  1  0  0  0  0
  7 19  1  0  0  0  0
  7 20  1  0  0  0  0
  8 21  1  0  0  0  0
M  END
