 xtb: 6.7.1 (edcfbbe)
          04112511103D

 18 17  0     0  0            999 V2000
    2.2107    0.7275    0.1996 C   0  0  0  0  0  0  0  0  0  0  0  0
    1.6292   -0.5311   -0.4326 C   0  0  0  0  0  0  0  0  0  0  0  0
    0.2653   -0.9178    0.1426 C   0  0  0  0  0  0  0  0  0  0  0  0
   -0.8885   -0.0138   -0.3084 C   0  0  0  0  0  0  0  0  0  0  0  0
   -0.7767    0.1946   -1.3863 H   0  0  0  0  0  0  0  0  0  0  0  0
   -2.2365   -0.6979   -0.0720 C   0  0  0  0  0  0  0  0  0  0  0  0
   -0.8112    1.2089    0.4079 O   0  0  0  0  0  0  0  0  0  0  0  0
    1.5211    1.5595    0.0925 H   0  0  0  0  0  0  0  0  0  0  0  0
    3.1552    0.9887   -0.2720 H   0  0  0  0  0  0  0  0  0  0  0  0
    2.3856    0.5697    1.2614 H   0  0  0  0  0  0  0  0  0  0  0  0
    1.5335   -0.3871   -1.5115 H   0  0  0  0  0  0  0  0  0  0  0  0
    2.3204   -1.3613   -0.2702 H   0  0  0  0  0  0  0  0  0  0  0  0
    0.0311   -1.9372   -0.1676 H   0  0  0  0  0  0  0  0  0  0  0  0
    0.3086   -0.8907    1.2326 H   0  0  0  0  0  0  0  0  0  0  0  0
   -3.0536   -0.0510   -0.3844 H   0  0  0  0  0  0  0  0  0  0  0  0
   -2.2922   -1.6215   -0.6403 H   0  0  0  0  0  0  0  0  0  0  0  0
   -2.3538   -0.9241    0.9851 H   0  0  0  0  0  0  0  0  0  0  0  0
   -1.5845    1.7485    0.1966 H   0  0  0  0  0  0  0  0  0  0  0  0
  1  2  1  0  0  0  0
  2  3  1  0  0  0  0
  3  4  1  0  0  0  0
  4  5  1  0  0  0  0
  4  6  1  0  0  0  0
  4  7  1  0  0  0  0
  1  8  1  0  0  0  0
  1  9  1  0  0  0  0
  1 10  1  0  0  0  0
  2 11  1  0  0  0  0
  2 12  1  0  0  0  0
  3 13  1  0  0  0  0
  3 14  1  0  0  0  0
  6 15  1  0  0  0  0
  6 16  1  0  0  0  0
  6 17  1  0  0  0  0
  7 18  1  0  0  0  0
M  END
