 xtb: 6.7.1 (edcfbbe)
          04112512203D

 18 17  0     0  0            999 V2000
   -1.9597    1.4615    0.0705 C   0  0  0  0  0  0  0  0  0  0  0  0
   -1.4855    0.0757   -0.3913 C   0  0  0  0  0  0  0  0  0  0  0  0
   -0.1614   -0.3650    0.2434 C   0  0  0  0  0  0  0  0  0  0  0  0
   -0.2085   -0.1754    1.3224 H   0  0  0  0  0  0  0  0  0  0  0  0
    0.0757   -1.8580    0.0228 C   0  0  0  0  0  0  0  0  0  0  0  0
    1.0112    0.4365   -0.3380 C   0  0  0  0  0  0  0  0  0  0  0  0
    2.2393    0.1818    0.3124 O   0  0  0  0  0  0  0  0  0  0  0  0
   -2.9046    1.3916    0.6023 H   0  0  0  0  0  0  0  0  0  0  0  0
   -1.2381    1.9196    0.7417 H   0  0  0  0  0  0  0  0  0  0  0  0
   -2.1001    2.1311   -0.7733 H   0  0  0  0  0  0  0  0  0  0  0  0
   -1.3661    0.0623   -1.4761 H   0  0  0  0  0  0  0  0  0  0  0  0
   -2.2425   -0.6691   -0.1423 H   0  0  0  0  0  0  0  0  0  0  0  0
   -0.6608   -2.4487    0.5613 H   0  0  0  0  0  0  0  0  0  0  0  0
    1.0686   -2.1333    0.3704 H   0  0  0  0  0  0  0  0  0  0  0  0
    0.0066   -2.0967   -1.0362 H   0  0  0  0  0  0  0  0  0  0  0  0
    0.7888    1.5110   -0.3100 H   0  0  0  0  0  0  0  0  0  0  0  0
    1.1728    0.1488   -1.3801 H   0  0  0  0  0  0  0  0  0  0  0  0
    2.1629    0.4449    1.2398 H   0  0  0  0  0  0  0  0  0  0  0  0
  1  2  1  0  0  0  0
  2  3  1  0  0  0  0
  3  4  1  0  0  0  0
  3  5  1  0  0  0  0
  3  6  1  0  0  0  0
  6  7  1  0  0  0  0
  1  8  1  0  0  0  0
  1  9  1  0  0  0  0
  1 10  1  0  0  0  0
  2 11  1  0  0  0  0
  2 12  1  0  0  0  0
  5 13  1  0  0  0  0
  5 14  1  0  0  0  0
  5 15  1  0  0  0  0
  6 16  1  0  0  0  0
  6 17  1  0  0  0  0
  7 18  1  0  0  0  0
M  END
