 xtb: 6.7.1 (edcfbbe)
          04112511203D

 21 20  0     0  0            999 V2000
   -2.5099    0.9359   -0.4097 C   0  0  0  0  0  0  0  0  0  0  0  0
   -1.7352   -0.3784   -0.4110 C   0  0  0  0  0  0  0  0  0  0  0  0
   -0.6154   -0.4197    0.6353 C   0  0  0  0  0  0  0  0  0  0  0  0
    0.8104   -0.1190    0.1370 C   0  0  0  0  0  0  0  0  0  0  0  0
    0.9055    1.2322   -0.5769 C   0  0  0  0  0  0  0  0  0  0  0  0
    1.3263   -1.2358   -0.7775 C   0  0  0  0  0  0  0  0  0  0  0  0
    1.5926   -0.0848    1.3335 O   0  0  0  0  0  0  0  0  0  0  0  0
   -3.2970    0.9085   -1.1602 H   0  0  0  0  0  0  0  0  0  0  0  0
   -1.8593    1.7778   -0.6263 H   0  0  0  0  0  0  0  0  0  0  0  0
   -2.9704    1.1009    0.5618 H   0  0  0  0  0  0  0  0  0  0  0  0
   -2.4374   -1.1874   -0.2013 H   0  0  0  0  0  0  0  0  0  0  0  0
   -1.3289   -0.5576   -1.4069 H   0  0  0  0  0  0  0  0  0  0  0  0
   -0.8322    0.2934    1.4331 H   0  0  0  0  0  0  0  0  0  0  0  0
   -0.5755   -1.4073    1.0991 H   0  0  0  0  0  0  0  0  0  0  0  0
    0.3004    1.2311   -1.4774 H   0  0  0  0  0  0  0  0  0  0  0  0
    1.9376    1.4342   -0.8578 H   0  0  0  0  0  0  0  0  0  0  0  0
    0.5664    2.0254    0.0850 H   0  0  0  0  0  0  0  0  0  0  0  0
    1.3408   -2.1783   -0.2351 H   0  0  0  0  0  0  0  0  0  0  0  0
    2.3363   -1.0118   -1.1150 H   0  0  0  0  0  0  0  0  0  0  0  0
    0.6900   -1.3442   -1.6499 H   0  0  0  0  0  0  0  0  0  0  0  0
    2.5161    0.0807    1.1000 H   0  0  0  0  0  0  0  0  0  0  0  0
  1  2  1  0  0  0  0
  2  3  1  0  0  0  0
  3  4  1  0  0  0  0
  4  5  1  0  0  0  0
  4  6  1  0  0  0  0
  4  7  1  0  0  0  0
  1  8  1  0  0  0  0
  1  9  1  0  0  0  0
  1 10  1  0  0  0  0
  2 11  1  0  0  0  0
  2 12  1  0  0  0  0
  3 13  1  0  0  0  0
  3 14  1  0  0  0  0
  5 15  1  0  0  0  0
  5 16  1  0  0  0  0
  5 17  1  0  0  0  0
  6 18  1  0  0  0  0
  6 19  1  0  0  0  0
  6 20  1  0  0  0  0
  7 21  1  0  0  0  0
M  END
