 xtb: 6.7.1 (edcfbbe)
          04112511533D

 26 27  0     0  0            999 V2000
    0.5227    1.9324    0.3456 C   0  0  0  0  0  0  0  0  0  0  0  0
    1.8710    2.1823    0.4224 C   0  0  0  0  0  0  0  0  0  0  0  0
    2.8142    1.1732    0.1960 C   0  0  0  0  0  0  0  0  0  0  0  0
    2.3502   -0.1180   -0.1178 C   0  0  0  0  0  0  0  0  0  0  0  0
    0.9726   -0.3530   -0.1833 C   0  0  0  0  0  0  0  0  0  0  0  0
    0.0494    0.6499    0.0438 C   0  0  0  0  0  0  0  0  0  0  0  0
   -1.3968    0.3930   -0.0383 C   0  0  0  0  0  0  0  0  0  0  0  0
   -2.2464    1.2919   -0.6836 C   0  0  0  0  0  0  0  0  0  0  0  0
   -3.6072    1.0676   -0.7757 C   0  0  0  0  0  0  0  0  0  0  0  0
   -4.1287   -0.0778   -0.2051 C   0  0  0  0  0  0  0  0  0  0  0  0
   -3.3367   -0.9979    0.4540 C   0  0  0  0  0  0  0  0  0  0  0  0
   -1.9811   -0.7409    0.5213 C   0  0  0  0  0  0  0  0  0  0  0  0
   -1.2126   -1.6354    1.1960 F   0  0  0  0  0  0  0  0  0  0  0  0
   -5.4640   -0.3128   -0.2880 F   0  0  0  0  0  0  0  0  0  0  0  0
    3.2188   -1.2712   -0.3954 C   0  0  0  0  0  0  0  0  0  0  0  0
    2.8068   -2.3725   -0.7105 O   0  0  0  0  0  0  0  0  0  0  0  0
    4.5306   -1.0377   -0.2815 O   0  0  0  0  0  0  0  0  0  0  0  0
    4.1015    1.5237    0.2944 O   0  0  0  0  0  0  0  0  0  0  0  0
   -0.1798    2.7267    0.5416 H   0  0  0  0  0  0  0  0  0  0  0  0
    2.2439    3.1647    0.6632 H   0  0  0  0  0  0  0  0  0  0  0  0
    0.6578   -1.3550   -0.4344 H   0  0  0  0  0  0  0  0  0  0  0  0
   -1.8222    2.1731   -1.1362 H   0  0  0  0  0  0  0  0  0  0  0  0
   -4.2587    1.7611   -1.2804 H   0  0  0  0  0  0  0  0  0  0  0  0
   -3.7553   -1.8825    0.9036 H   0  0  0  0  0  0  0  0  0  0  0  0
    5.0595   -1.8357   -0.4749 H   0  0  0  0  0  0  0  0  0  0  0  0
    4.6938    0.7663    0.1321 H   0  0  0  0  0  0  0  0  0  0  0  0
  1  2  4  0  0  0  0
  2  3  4  0  0  0  0
  3  4  4  0  0  0  0
  4  5  4  0  0  0  0
  1  6  4  0  0  0  0
  5  6  4  0  0  0  0
  6  7  1  0  0  0  0
  7  8  4  0  0  0  0
  8  9  4  0  0  0  0
  9 10  4  0  0  0  0
 10 11  4  0  0  0  0
  7 12  4  0  0  0  0
 11 12  4  0  0  0  0
 12 13  1  0  0  0  0
 10 14  1  0  0  0  0
  4 15  1  0  0  0  0
 15 16  2  0  0  0  0
 15 17  1  0  0  0  0
  3 18  1  0  0  0  0
  1 19  1  0  0  0  0
  2 20  1  0  0  0  0
  5 21  1  0  0  0  0
  8 22  1  0  0  0  0
  9 23  1  0  0  0  0
 11 24  1  0  0  0  0
 17 25  1  0  0  0  0
 18 26  1  0  0  0  0
M  END
