 xtb: 6.7.1 (edcfbbe)
          04112511583D

 20 19  0     0  0            999 V2000
    1.9422    0.4672    0.8001 C   0  0  0  0  0  0  0  0  0  0  0  0
    1.5093   -0.3752   -0.3947 C   0  0  0  0  0  0  0  0  0  0  0  0
    0.2438    0.1078   -1.1101 C   0  0  0  0  0  0  0  0  0  0  0  0
   -1.1011   -0.0053   -0.3684 C   0  0  0  0  0  0  0  0  0  0  0  0
   -1.3492    1.1406    0.6120 C   0  0  0  0  0  0  0  0  0  0  0  0
   -1.2721   -1.3533    0.3283 C   0  0  0  0  0  0  0  0  0  0  0  0
    2.9508    0.1918    1.1018 H   0  0  0  0  0  0  0  0  0  0  0  0
    1.9378    1.5243    0.5446 H   0  0  0  0  0  0  0  0  0  0  0  0
    1.2875    0.3136    1.6529 H   0  0  0  0  0  0  0  0  0  0  0  0
    2.3159   -0.3576   -1.1331 H   0  0  0  0  0  0  0  0  0  0  0  0
    1.3841   -1.4127   -0.0827 H   0  0  0  0  0  0  0  0  0  0  0  0
    0.3858    1.1500   -1.4067 H   0  0  0  0  0  0  0  0  0  0  0  0
    0.1585   -0.4793   -2.0290 H   0  0  0  0  0  0  0  0  0  0  0  0
   -1.8762    0.0683   -1.1426 H   0  0  0  0  0  0  0  0  0  0  0  0
   -2.3731    1.0981    0.9782 H   0  0  0  0  0  0  0  0  0  0  0  0
   -1.2025    2.1009    0.1229 H   0  0  0  0  0  0  0  0  0  0  0  0
   -0.6839    1.0851    1.4674 H   0  0  0  0  0  0  0  0  0  0  0  0
   -1.0764   -2.1696   -0.3633 H   0  0  0  0  0  0  0  0  0  0  0  0
   -0.5954   -1.4418    1.1741 H   0  0  0  0  0  0  0  0  0  0  0  0
   -2.2899   -1.4549    0.6986 H   0  0  0  0  0  0  0  0  0  0  0  0
  1  2  1  0  0  0  0
  2  3  1  0  0  0  0
  3  4  1  0  0  0  0
  4  5  1  0  0  0  0
  4  6  1  0  0  0  0
  1  7  1  0  0  0  0
  1  8  1  0  0  0  0
  1  9  1  0  0  0  0
  2 10  1  0  0  0  0
  2 11  1  0  0  0  0
  3 12  1  0  0  0  0
  3 13  1  0  0  0  0
  4 14  1  0  0  0  0
  5 15  1  0  0  0  0
  5 16  1  0  0  0  0
  5 17  1  0  0  0  0
  6 18  1  0  0  0  0
  6 19  1  0  0  0  0
  6 20  1  0  0  0  0
M  END
