 xtb: 6.7.1 (edcfbbe)
          04112511203D

 21 20  0     0  0            999 V2000
   -3.0098    0.2965   -0.1319 C   0  0  0  0  0  0  0  0  0  0  0  0
   -1.5717    0.6045    0.2714 C   0  0  0  0  0  0  0  0  0  0  0  0
   -0.5943   -0.3429   -0.4235 C   0  0  0  0  0  0  0  0  0  0  0  0
    0.8903   -0.1639   -0.0409 C   0  0  0  0  0  0  0  0  0  0  0  0
    1.3860    1.2529   -0.3482 C   0  0  0  0  0  0  0  0  0  0  0  0
    1.7291   -1.1820   -0.8200 C   0  0  0  0  0  0  0  0  0  0  0  0
    1.0964   -0.4706    1.3362 O   0  0  0  0  0  0  0  0  0  0  0  0
   -3.2737   -0.7223    0.1429 H   0  0  0  0  0  0  0  0  0  0  0  0
   -3.1345    0.4038   -1.2069 H   0  0  0  0  0  0  0  0  0  0  0  0
   -3.6986    0.9759    0.3642 H   0  0  0  0  0  0  0  0  0  0  0  0
   -1.3449    1.6380    0.0055 H   0  0  0  0  0  0  0  0  0  0  0  0
   -1.4800    0.5005    1.3546 H   0  0  0  0  0  0  0  0  0  0  0  0
   -0.8739   -1.3708   -0.1797 H   0  0  0  0  0  0  0  0  0  0  0  0
   -0.6841   -0.2193   -1.5039 H   0  0  0  0  0  0  0  0  0  0  0  0
    1.2197    1.4884   -1.3951 H   0  0  0  0  0  0  0  0  0  0  0  0
    2.4507    1.3201   -0.1373 H   0  0  0  0  0  0  0  0  0  0  0  0
    0.8692    1.9882    0.2635 H   0  0  0  0  0  0  0  0  0  0  0  0
    1.6419   -1.0079   -1.8876 H   0  0  0  0  0  0  0  0  0  0  0  0
    1.3914   -2.1891   -0.5907 H   0  0  0  0  0  0  0  0  0  0  0  0
    2.7715   -1.0968   -0.5252 H   0  0  0  0  0  0  0  0  0  0  0  0
    0.6896    0.2192    1.8764 H   0  0  0  0  0  0  0  0  0  0  0  0
  1  2  1  0  0  0  0
  2  3  1  0  0  0  0
  3  4  1  0  0  0  0
  4  5  1  0  0  0  0
  4  6  1  0  0  0  0
  4  7  1  0  0  0  0
  1  8  1  0  0  0  0
  1  9  1  0  0  0  0
  1 10  1  0  0  0  0
  2 11  1  0  0  0  0
  2 12  1  0  0  0  0
  3 13  1  0  0  0  0
  3 14  1  0  0  0  0
  5 15  1  0  0  0  0
  5 16  1  0  0  0  0
  5 17  1  0  0  0  0
  6 18  1  0  0  0  0
  6 19  1  0  0  0  0
  6 20  1  0  0  0  0
  7 21  1  0  0  0  0
M  END
