 xtb: 6.7.1 (edcfbbe)
          04112511443D

 25 25  0     0  0            999 V2000
    2.8065   -0.8902    1.1322 C   0  0  0  0  0  0  0  0  0  0  0  0
    2.5518    0.0374   -0.0179 C   0  0  0  0  0  0  0  0  0  0  0  0
    3.5383    0.5099   -0.7643 C   0  0  0  0  0  0  0  0  0  0  0  0
    1.1163    0.4088   -0.3026 C   0  0  0  0  0  0  0  0  0  0  0  0
    1.1196    1.2044   -1.0534 H   0  0  0  0  0  0  0  0  0  0  0  0
    0.3330   -0.7939   -0.8778 C   0  0  0  0  0  0  0  0  0  0  0  0
   -0.9636   -1.0955   -0.1117 C   0  0  0  0  0  0  0  0  0  0  0  0
   -1.7070    0.1764    0.1579 C   0  0  0  0  0  0  0  0  0  0  0  0
   -1.0107    1.1980    0.6873 C   0  0  0  0  0  0  0  0  0  0  0  0
    0.4309    0.9901    0.9570 C   0  0  0  0  0  0  0  0  0  0  0  0
   -3.1102    0.2922   -0.1687 C   0  0  0  0  0  0  0  0  0  0  0  0
   -3.7995   -0.5783   -0.6716 O   0  0  0  0  0  0  0  0  0  0  0  0
    2.7762   -0.3393    2.0715 H   0  0  0  0  0  0  0  0  0  0  0  0
    2.0576   -1.6771    1.1756 H   0  0  0  0  0  0  0  0  0  0  0  0
    3.7891   -1.3453    1.0432 H   0  0  0  0  0  0  0  0  0  0  0  0
    3.3623    1.1878   -1.5824 H   0  0  0  0  0  0  0  0  0  0  0  0
    4.5651    0.2367   -0.5892 H   0  0  0  0  0  0  0  0  0  0  0  0
    0.0768   -0.5832   -1.9166 H   0  0  0  0  0  0  0  0  0  0  0  0
    0.9594   -1.6863   -0.8767 H   0  0  0  0  0  0  0  0  0  0  0  0
   -1.5931   -1.7799   -0.6816 H   0  0  0  0  0  0  0  0  0  0  0  0
   -0.7207   -1.5717    0.8418 H   0  0  0  0  0  0  0  0  0  0  0  0
   -1.4701    2.1523    0.8945 H   0  0  0  0  0  0  0  0  0  0  0  0
    0.9278    1.9127    1.2525 H   0  0  0  0  0  0  0  0  0  0  0  0
    0.5291    0.2648    1.7681 H   0  0  0  0  0  0  0  0  0  0  0  0
   -3.5579    1.2743    0.0761 H   0  0  0  0  0  0  0  0  0  0  0  0
  1  2  1  0  0  0  0
  2  3  2  0  0  0  0
  2  4  1  0  0  0  0
  4  5  1  0  0  0  0
  4  6  1  0  0  0  0
  6  7  1  0  0  0  0
  7  8  1  0  0  0  0
  8  9  2  0  0  0  0
  4 10  1  0  0  0  0
  9 10  1  0  0  0  0
  8 11  1  0  0  0  0
 11 12  2  0  0  0  0
  1 13  1  0  0  0  0
  1 14  1  0  0  0  0
  1 15  1  0  0  0  0
  3 16  1  0  0  0  0
  3 17  1  0  0  0  0
  6 18  1  0  0  0  0
  6 19  1  0  0  0  0
  7 20  1  0  0  0  0
  7 21  1  0  0  0  0
  9 22  1  0  0  0  0
 10 23  1  0  0  0  0
 10 24  1  0  0  0  0
 11 25  1  0  0  0  0
M  END
