 xtb: 6.7.1 (edcfbbe)
          04112511553D

 24 24  0     0  0            999 V2000
   -3.0974   -0.2329    0.4739 C   0  0  0  0  0  0  0  0  0  0  0  0
   -2.0958   -0.5794   -0.6223 C   0  0  0  0  0  0  0  0  0  0  0  0
   -0.8873    0.3585   -0.6591 C   0  0  0  0  0  0  0  0  0  0  0  0
    0.0436    0.2478    0.5523 C   0  0  0  0  0  0  0  0  0  0  0  0
    0.8615   -1.0468    0.5608 C   0  0  0  0  0  0  0  0  0  0  0  0
    2.0493   -0.7801   -0.3742 C   0  0  0  0  0  0  0  0  0  0  0  0
    2.2063    0.7505   -0.4353 C   0  0  0  0  0  0  0  0  0  0  0  0
    1.1428    1.3147    0.5131 C   0  0  0  0  0  0  0  0  0  0  0  0
   -2.6640   -0.3757    1.4603 H   0  0  0  0  0  0  0  0  0  0  0  0
   -3.4163    0.8033    0.3843 H   0  0  0  0  0  0  0  0  0  0  0  0
   -3.9751   -0.8704    0.3962 H   0  0  0  0  0  0  0  0  0  0  0  0
   -1.7630   -1.6107   -0.4927 H   0  0  0  0  0  0  0  0  0  0  0  0
   -2.6015   -0.5199   -1.5892 H   0  0  0  0  0  0  0  0  0  0  0  0
   -0.3144    0.1545   -1.5648 H   0  0  0  0  0  0  0  0  0  0  0  0
   -1.2527    1.3868   -0.7239 H   0  0  0  0  0  0  0  0  0  0  0  0
   -0.5504    0.3442    1.4640 H   0  0  0  0  0  0  0  0  0  0  0  0
    1.2203   -1.2353    1.5738 H   0  0  0  0  0  0  0  0  0  0  0  0
    0.2823   -1.9122    0.2450 H   0  0  0  0  0  0  0  0  0  0  0  0
    2.9530   -1.2613   -0.0021 H   0  0  0  0  0  0  0  0  0  0  0  0
    1.8504   -1.1832   -1.3672 H   0  0  0  0  0  0  0  0  0  0  0  0
    3.2059    1.0661   -0.1396 H   0  0  0  0  0  0  0  0  0  0  0  0
    2.0349    1.1107   -1.4497 H   0  0  0  0  0  0  0  0  0  0  0  0
    1.5632    1.4341    1.5130 H   0  0  0  0  0  0  0  0  0  0  0  0
    0.7710    2.2841    0.1839 H   0  0  0  0  0  0  0  0  0  0  0  0
  1  2  1  0  0  0  0
  2  3  1  0  0  0  0
  3  4  1  0  0  0  0
  4  5  1  0  0  0  0
  5  6  1  0  0  0  0
  6  7  1  0  0  0  0
  4  8  1  0  0  0  0
  7  8  1  0  0  0  0
  1  9  1  0  0  0  0
  1 10  1  0  0  0  0
  1 11  1  0  0  0  0
  2 12  1  0  0  0  0
  2 13  1  0  0  0  0
  3 14  1  0  0  0  0
  3 15  1  0  0  0  0
  4 16  1  0  0  0  0
  5 17  1  0  0  0  0
  5 18  1  0  0  0  0
  6 19  1  0  0  0  0
  6 20  1  0  0  0  0
  7 21  1  0  0  0  0
  7 22  1  0  0  0  0
  8 23  1  0  0  0  0
  8 24  1  0  0  0  0
M  END
