 xtb: 6.7.1 (edcfbbe)
          04112511193D

 14 13  0     0  0            999 V2000
   -1.4310   -0.0536    0.6380 C   0  0  0  0  0  0  0  0  0  0  0  0
    0.0657    0.2797    0.5070 C   0  0  0  0  0  0  0  0  0  0  0  0
    0.8769   -0.8858   -0.0772 C   0  0  0  0  0  0  0  0  0  0  0  0
    2.2617   -0.6616    0.0276 O   0  0  0  0  0  0  0  0  0  0  0  0
    0.2950    1.3908   -0.3371 O   0  0  0  0  0  0  0  0  0  0  0  0
   -2.1011   -0.1585   -0.5945 O   0  0  0  0  0  0  0  0  0  0  0  0
   -1.9354    0.7593    1.1672 H   0  0  0  0  0  0  0  0  0  0  0  0
   -1.5390   -0.9709    1.2296 H   0  0  0  0  0  0  0  0  0  0  0  0
    0.4529    0.4920    1.5172 H   0  0  0  0  0  0  0  0  0  0  0  0
    0.6000   -1.0244   -1.1302 H   0  0  0  0  0  0  0  0  0  0  0  0
    0.6771   -1.8016    0.4818 H   0  0  0  0  0  0  0  0  0  0  0  0
    2.4598    0.1876   -0.3940 H   0  0  0  0  0  0  0  0  0  0  0  0
   -0.3608    2.0775   -0.1587 H   0  0  0  0  0  0  0  0  0  0  0  0
   -1.7658   -0.9169   -1.0900 H   0  0  0  0  0  0  0  0  0  0  0  0
  1  2  1  0  0  0  0
  2  3  1  0  0  0  0
  3  4  1  0  0  0  0
  2  5  1  0  0  0  0
  1  6  1  0  0  0  0
  1  7  1  0  0  0  0
  1  8  1  0  0  0  0
  2  9  1  0  0  0  0
  3 10  1  0  0  0  0
  3 11  1  0  0  0  0
  4 12  1  0  0  0  0
  5 13  1  0  0  0  0
  6 14  1  0  0  0  0
M  END
