 xtb: 6.7.1 (edcfbbe)
          04112511063D

 14 13  0     0  0            999 V2000
   -2.2944   -0.9600    0.1128 C   0  0  0  0  0  0  0  0  0  0  0  0
   -2.4567    0.5488    0.2571 C   0  0  0  0  0  0  0  0  0  0  0  0
   -1.2747    1.3564   -0.2832 C   0  0  0  0  0  0  0  0  0  0  0  0
    0.0188    1.1769    0.4945 C   0  0  0  0  0  0  0  0  0  0  0  0
    1.0904   -0.3720   -0.1076 Br  0  0  0  0  0  0  0  0  0  0  0  0
   -1.5026   -1.3387    0.7535 H   0  0  0  0  0  0  0  0  0  0  0  0
   -3.2177   -1.4619    0.3915 H   0  0  0  0  0  0  0  0  0  0  0  0
   -2.0579   -1.2242   -0.9156 H   0  0  0  0  0  0  0  0  0  0  0  0
   -2.6102    0.7988    1.3094 H   0  0  0  0  0  0  0  0  0  0  0  0
   -3.3487    0.8606   -0.2896 H   0  0  0  0  0  0  0  0  0  0  0  0
   -1.1115    1.1125   -1.3349 H   0  0  0  0  0  0  0  0  0  0  0  0
   -1.5329    2.4170   -0.2274 H   0  0  0  0  0  0  0  0  0  0  0  0
   -0.1627    1.0118    1.5550 H   0  0  0  0  0  0  0  0  0  0  0  0
    0.6847    2.0270    0.3601 H   0  0  0  0  0  0  0  0  0  0  0  0
  1  2  1  0  0  0  0
  2  3  1  0  0  0  0
  3  4  1  0  0  0  0
  4  5  1  0  0  0  0
  1  6  1  0  0  0  0
  1  7  1  0  0  0  0
  1  8  1  0  0  0  0
  2  9  1  0  0  0  0
  2 10  1  0  0  0  0
  3 11  1  0  0  0  0
  3 12  1  0  0  0  0
  4 13  1  0  0  0  0
  4 14  1  0  0  0  0
M  END
