 xtb: 6.7.1 (edcfbbe)
          04112511493D

 21 20  0     0  0            999 V2000
    1.6258   -0.4020   -1.0591 C   0  0  0  0  0  0  0  0  0  0  0  0
    1.3038   -0.1105    0.4030 C   0  0  0  0  0  0  0  0  0  0  0  0
    2.0936   -0.5801    1.0181 H   0  0  0  0  0  0  0  0  0  0  0  0
   -0.0230   -0.7074    0.9134 C   0  0  0  0  0  0  0  0  0  0  0  0
   -1.3537   -0.3593    0.2205 C   0  0  0  0  0  0  0  0  0  0  0  0
   -1.5630    1.1448    0.0631 C   0  0  0  0  0  0  0  0  0  0  0  0
   -1.5558   -1.0742   -1.1155 C   0  0  0  0  0  0  0  0  0  0  0  0
    1.3887    1.2958    0.5721 O   0  0  0  0  0  0  0  0  0  0  0  0
    1.0134    0.2181   -1.7057 H   0  0  0  0  0  0  0  0  0  0  0  0
    2.6674   -0.1568   -1.2517 H   0  0  0  0  0  0  0  0  0  0  0  0
    1.4575   -1.4499   -1.2830 H   0  0  0  0  0  0  0  0  0  0  0  0
    0.0926   -1.7934    0.8991 H   0  0  0  0  0  0  0  0  0  0  0  0
   -0.1148   -0.4088    1.9625 H   0  0  0  0  0  0  0  0  0  0  0  0
   -2.1339   -0.7335    0.8973 H   0  0  0  0  0  0  0  0  0  0  0  0
   -2.5249    1.3395   -0.4064 H   0  0  0  0  0  0  0  0  0  0  0  0
   -0.7823    1.5835   -0.5516 H   0  0  0  0  0  0  0  0  0  0  0  0
   -1.5511    1.6370    1.0327 H   0  0  0  0  0  0  0  0  0  0  0  0
   -1.3112   -2.1302   -1.0280 H   0  0  0  0  0  0  0  0  0  0  0  0
   -2.5976   -0.9910   -1.4188 H   0  0  0  0  0  0  0  0  0  0  0  0
   -0.9447   -0.6395   -1.8990 H   0  0  0  0  0  0  0  0  0  0  0  0
    1.2515    1.5142    1.5026 H   0  0  0  0  0  0  0  0  0  0  0  0
  1  2  1  0  0  0  0
  2  3  1  0  0  0  0
  2  4  1  0  0  0  0
  4  5  1  0  0  0  0
  5  6  1  0  0  0  0
  5  7  1  0  0  0  0
  2  8  1  0  0  0  0
  1  9  1  0  0  0  0
  1 10  1  0  0  0  0
  1 11  1  0  0  0  0
  4 12  1  0  0  0  0
  4 13  1  0  0  0  0
  5 14  1  0  0  0  0
  6 15  1  0  0  0  0
  6 16  1  0  0  0  0
  6 17  1  0  0  0  0
  7 18  1  0  0  0  0
  7 19  1  0  0  0  0
  7 20  1  0  0  0  0
  8 21  1  0  0  0  0
M  END
