 xtb: 6.7.1 (edcfbbe)
          04112512193D

 17 16  0     0  0            999 V2000
   -2.1702    0.7638    1.0167 C   0  0  0  0  0  0  0  0  0  0  0  0
   -1.8970    0.0825   -0.3236 C   0  0  0  0  0  0  0  0  0  0  0  0
   -0.4558   -0.3407   -0.4567 C   0  0  0  0  0  0  0  0  0  0  0  0
   -0.0945   -1.4628   -0.7491 O   0  0  0  0  0  0  0  0  0  0  0  0
    0.3796    0.6657   -0.2391 O   0  0  0  0  0  0  0  0  0  0  0  0
    1.7914    0.4124   -0.3181 C   0  0  0  0  0  0  0  0  0  0  0  0
    2.3311   -0.1161    1.0021 C   0  0  0  0  0  0  0  0  0  0  0  0
   -3.2124    1.0643    1.0679 H   0  0  0  0  0  0  0  0  0  0  0  0
   -1.9643    0.0827    1.8387 H   0  0  0  0  0  0  0  0  0  0  0  0
   -1.5428    1.6437    1.1259 H   0  0  0  0  0  0  0  0  0  0  0  0
   -2.1096    0.7793   -1.1364 H   0  0  0  0  0  0  0  0  0  0  0  0
   -2.5181   -0.8046   -0.4469 H   0  0  0  0  0  0  0  0  0  0  0  0
    1.9727   -0.3069   -1.1227 H   0  0  0  0  0  0  0  0  0  0  0  0
    2.2292    1.3793   -0.5676 H   0  0  0  0  0  0  0  0  0  0  0  0
    3.4067   -0.2389    0.9273 H   0  0  0  0  0  0  0  0  0  0  0  0
    2.1039    0.5788    1.8058 H   0  0  0  0  0  0  0  0  0  0  0  0
    1.8811   -1.0803    1.2284 H   0  0  0  0  0  0  0  0  0  0  0  0
  1  2  1  0  0  0  0
  2  3  1  0  0  0  0
  3  4  2  0  0  0  0
  3  5  1  0  0  0  0
  5  6  1  0  0  0  0
  6  7  1  0  0  0  0
  1  8  1  0  0  0  0
  1  9  1  0  0  0  0
  1 10  1  0  0  0  0
  2 11  1  0  0  0  0
  2 12  1  0  0  0  0
  6 13  1  0  0  0  0
  6 14  1  0  0  0  0
  7 15  1  0  0  0  0
  7 16  1  0  0  0  0
  7 17  1  0  0  0  0
M  END
