 xtb: 6.7.1 (edcfbbe)
          04112511523D

 18 17  0     0  0            999 V2000
    1.5605   -1.1923   -0.6521 C   0  0  0  0  0  0  0  0  0  0  0  0
    1.0623   -0.2659    0.4566 C   0  0  0  0  0  0  0  0  0  0  0  0
    1.2493    1.1957    0.0596 C   0  0  0  0  0  0  0  0  0  0  0  0
   -0.3881   -0.5730    0.8585 C   0  0  0  0  0  0  0  0  0  0  0  0
   -1.4490   -0.3533   -0.2205 C   0  0  0  0  0  0  0  0  0  0  0  0
   -1.7545    1.0251   -0.3291 O   0  0  0  0  0  0  0  0  0  0  0  0
    1.0603   -0.9791   -1.5934 H   0  0  0  0  0  0  0  0  0  0  0  0
    1.3834   -2.2332   -0.3918 H   0  0  0  0  0  0  0  0  0  0  0  0
    2.6282   -1.0515   -0.8017 H   0  0  0  0  0  0  0  0  0  0  0  0
    1.6727   -0.4556    1.3482 H   0  0  0  0  0  0  0  0  0  0  0  0
    0.9184    1.8526    0.8602 H   0  0  0  0  0  0  0  0  0  0  0  0
    0.6664    1.4296   -0.8266 H   0  0  0  0  0  0  0  0  0  0  0  0
    2.2973    1.3997   -0.1485 H   0  0  0  0  0  0  0  0  0  0  0  0
   -0.6582    0.0553    1.7096 H   0  0  0  0  0  0  0  0  0  0  0  0
   -0.4451   -1.6163    1.1747 H   0  0  0  0  0  0  0  0  0  0  0  0
   -1.1017   -0.7431   -1.1851 H   0  0  0  0  0  0  0  0  0  0  0  0
   -2.3537   -0.9073    0.0669 H   0  0  0  0  0  0  0  0  0  0  0  0
   -2.4669    1.1451   -0.9701 H   0  0  0  0  0  0  0  0  0  0  0  0
  1  2  1  0  0  0  0
  2  3  1  0  0  0  0
  2  4  1  0  0  0  0
  4  5  1  0  0  0  0
  5  6  1  0  0  0  0
  1  7  1  0  0  0  0
  1  8  1  0  0  0  0
  1  9  1  0  0  0  0
  2 10  1  0  0  0  0
  3 11  1  0  0  0  0
  3 12  1  0  0  0  0
  3 13  1  0  0  0  0
  4 14  1  0  0  0  0
  4 15  1  0  0  0  0
  5 16  1  0  0  0  0
  5 17  1  0  0  0  0
  6 18  1  0  0  0  0
M  END
