 xtb: 6.7.1 (edcfbbe)
          04112512203D

 18 17  0     0  0            999 V2000
   -1.7448    1.4697    0.3084 C   0  0  0  0  0  0  0  0  0  0  0  0
   -1.2083    0.2691   -0.4644 C   0  0  0  0  0  0  0  0  0  0  0  0
   -0.2447   -0.6071    0.3467 C   0  0  0  0  0  0  0  0  0  0  0  0
   -0.7317   -0.8710    1.2917 H   0  0  0  0  0  0  0  0  0  0  0  0
    0.0813   -1.8889   -0.4189 C   0  0  0  0  0  0  0  0  0  0  0  0
    1.0596    0.1209    0.7132 C   0  0  0  0  0  0  0  0  0  0  0  0
    1.8445    0.4985   -0.3976 O   0  0  0  0  0  0  0  0  0  0  0  0
   -2.4753    2.0044   -0.2940 H   0  0  0  0  0  0  0  0  0  0  0  0
   -2.2304    1.1426    1.2251 H   0  0  0  0  0  0  0  0  0  0  0  0
   -0.9519    2.1646    0.5724 H   0  0  0  0  0  0  0  0  0  0  0  0
   -0.7162    0.6053   -1.3797 H   0  0  0  0  0  0  0  0  0  0  0  0
   -2.0528   -0.3539   -0.7672 H   0  0  0  0  0  0  0  0  0  0  0  0
    0.6438   -1.6519   -1.3192 H   0  0  0  0  0  0  0  0  0  0  0  0
   -0.8293   -2.4105   -0.7020 H   0  0  0  0  0  0  0  0  0  0  0  0
    0.6859   -2.5531    0.1938 H   0  0  0  0  0  0  0  0  0  0  0  0
    1.6950   -0.5541    1.2923 H   0  0  0  0  0  0  0  0  0  0  0  0
    0.8410    0.9972    1.3368 H   0  0  0  0  0  0  0  0  0  0  0  0
    1.3544    1.1498   -0.9172 H   0  0  0  0  0  0  0  0  0  0  0  0
  1  2  1  0  0  0  0
  2  3  1  0  0  0  0
  3  4  1  0  0  0  0
  3  5  1  0  0  0  0
  3  6  1  0  0  0  0
  6  7  1  0  0  0  0
  1  8  1  0  0  0  0
  1  9  1  0  0  0  0
  1 10  1  0  0  0  0
  2 11  1  0  0  0  0
  2 12  1  0  0  0  0
  5 13  1  0  0  0  0
  5 14  1  0  0  0  0
  5 15  1  0  0  0  0
  6 16  1  0  0  0  0
  6 17  1  0  0  0  0
  7 18  1  0  0  0  0
M  END
