 xtb: 6.7.1 (edcfbbe)
          04112511573D

 14 13  0     0  0            999 V2000
    1.7298   -0.7850    0.1245 C   0  0  0  0  0  0  0  0  0  0  0  0
    1.1529    0.3909   -0.4036 O   0  0  0  0  0  0  0  0  0  0  0  0
    0.0638    0.9261    0.3364 C   0  0  0  0  0  0  0  0  0  0  0  0
   -1.3200    0.4883   -0.1842 C   0  0  0  0  0  0  0  0  0  0  0  0
   -1.7126   -0.8847    0.0781 N   0  0  0  0  0  0  0  0  0  0  0  0
    1.0445   -1.6370    0.0859 H   0  0  0  0  0  0  0  0  0  0  0  0
    2.0513   -0.6306    1.1605 H   0  0  0  0  0  0  0  0  0  0  0  0
    2.5970   -0.9943   -0.4979 H   0  0  0  0  0  0  0  0  0  0  0  0
    0.1695    0.6702    1.3985 H   0  0  0  0  0  0  0  0  0  0  0  0
    0.1453    2.0115    0.2266 H   0  0  0  0  0  0  0  0  0  0  0  0
   -2.0668    1.1388    0.2796 H   0  0  0  0  0  0  0  0  0  0  0  0
   -1.3471    0.6456   -1.2645 H   0  0  0  0  0  0  0  0  0  0  0  0
   -1.6227   -1.0900    1.0676 H   0  0  0  0  0  0  0  0  0  0  0  0
   -1.1155   -1.5254   -0.4322 H   0  0  0  0  0  0  0  0  0  0  0  0
  1  2  1  0  0  0  0
  2  3  1  0  0  0  0
  3  4  1  0  0  0  0
  4  5  1  0  0  0  0
  1  6  1  0  0  0  0
  1  7  1  0  0  0  0
  1  8  1  0  0  0  0
  3  9  1  0  0  0  0
  3 10  1  0  0  0  0
  4 11  1  0  0  0  0
  4 12  1  0  0  0  0
  5 13  1  0  0  0  0
  5 14  1  0  0  0  0
M  END
