 xtb: 6.7.1 (edcfbbe)
          04112511143D

 17 16  0     0  0            999 V2000
    1.6231   -0.5164    1.0141 C   0  0  0  0  0  0  0  0  0  0  0  0
    1.1018   -0.3567   -0.4115 C   0  0  0  0  0  0  0  0  0  0  0  0
    2.2363    0.0209   -1.3608 C   0  0  0  0  0  0  0  0  0  0  0  0
   -0.0015    0.7217   -0.4607 C   0  0  0  0  0  0  0  0  0  0  0  0
   -1.2369    0.2476    0.2585 C   0  0  0  0  0  0  0  0  0  0  0  0
   -1.5354    0.5824    1.3830 O   0  0  0  0  0  0  0  0  0  0  0  0
   -2.0099   -0.6161   -0.3990 O   0  0  0  0  0  0  0  0  0  0  0  0
    2.1142    0.3968    1.3424 H   0  0  0  0  0  0  0  0  0  0  0  0
    2.3397   -1.3320    1.0679 H   0  0  0  0  0  0  0  0  0  0  0  0
    0.8073   -0.7271    1.7028 H   0  0  0  0  0  0  0  0  0  0  0  0
    0.6787   -1.3147   -0.7333 H   0  0  0  0  0  0  0  0  0  0  0  0
    2.6606    0.9811   -1.0783 H   0  0  0  0  0  0  0  0  0  0  0  0
    3.0228   -0.7276   -1.3172 H   0  0  0  0  0  0  0  0  0  0  0  0
    1.8817    0.0873   -2.3861 H   0  0  0  0  0  0  0  0  0  0  0  0
   -0.2445    0.9524   -1.4986 H   0  0  0  0  0  0  0  0  0  0  0  0
    0.3571    1.6255    0.0320 H   0  0  0  0  0  0  0  0  0  0  0  0
   -1.7044   -0.8030   -1.3054 H   0  0  0  0  0  0  0  0  0  0  0  0
  1  2  1  0  0  0  0
  2  3  1  0  0  0  0
  2  4  1  0  0  0  0
  4  5  1  0  0  0  0
  5  6  2  0  0  0  0
  5  7  1  0  0  0  0
  1  8  1  0  0  0  0
  1  9  1  0  0  0  0
  1 10  1  0  0  0  0
  2 11  1  0  0  0  0
  3 12  1  0  0  0  0
  3 13  1  0  0  0  0
  3 14  1  0  0  0  0
  4 15  1  0  0  0  0
  4 16  1  0  0  0  0
  7 17  1  0  0  0  0
M  END
