 xtb: 6.7.1 (edcfbbe)
          04112511443D

 25 25  0     0  0            999 V2000
    3.4867    0.8432   -0.5113 C   0  0  0  0  0  0  0  0  0  0  0  0
    2.5781   -0.0709    0.2544 C   0  0  0  0  0  0  0  0  0  0  0  0
    3.0173   -0.8099    1.2608 C   0  0  0  0  0  0  0  0  0  0  0  0
    1.1358   -0.0524   -0.1981 C   0  0  0  0  0  0  0  0  0  0  0  0
    1.1176    0.2002   -1.2636 H   0  0  0  0  0  0  0  0  0  0  0  0
    0.4027   -1.3835   -0.0196 C   0  0  0  0  0  0  0  0  0  0  0  0
   -0.9606   -1.3143   -0.7031 C   0  0  0  0  0  0  0  0  0  0  0  0
   -1.7142   -0.0919   -0.2599 C   0  0  0  0  0  0  0  0  0  0  0  0
   -1.0999    0.9544    0.3172 C   0  0  0  0  0  0  0  0  0  0  0  0
    0.3607    1.0364    0.5595 C   0  0  0  0  0  0  0  0  0  0  0  0
   -3.1518   -0.0610   -0.4644 C   0  0  0  0  0  0  0  0  0  0  0  0
   -3.8965    0.8588   -0.1733 O   0  0  0  0  0  0  0  0  0  0  0  0
    3.0950    1.8589   -0.5071 H   0  0  0  0  0  0  0  0  0  0  0  0
    4.4850    0.8512   -0.0833 H   0  0  0  0  0  0  0  0  0  0  0  0
    3.5549    0.5188   -1.5490 H   0  0  0  0  0  0  0  0  0  0  0  0
    2.3797   -1.4713    1.8197 H   0  0  0  0  0  0  0  0  0  0  0  0
    4.0497   -0.7846    1.5665 H   0  0  0  0  0  0  0  0  0  0  0  0
    0.9934   -2.1963   -0.4432 H   0  0  0  0  0  0  0  0  0  0  0  0
    0.2557   -1.5834    1.0421 H   0  0  0  0  0  0  0  0  0  0  0  0
   -0.8341   -1.2822   -1.7890 H   0  0  0  0  0  0  0  0  0  0  0  0
   -1.5453   -2.2066   -0.4703 H   0  0  0  0  0  0  0  0  0  0  0  0
   -1.7053    1.7934    0.6356 H   0  0  0  0  0  0  0  0  0  0  0  0
    0.7164    2.0306    0.2807 H   0  0  0  0  0  0  0  0  0  0  0  0
    0.5383    0.9316    1.6351 H   0  0  0  0  0  0  0  0  0  0  0  0
   -3.5701   -0.9726   -0.9311 H   0  0  0  0  0  0  0  0  0  0  0  0
  1  2  1  0  0  0  0
  2  3  2  0  0  0  0
  2  4  1  0  0  0  0
  4  5  1  0  0  0  0
  4  6  1  0  0  0  0
  6  7  1  0  0  0  0
  7  8  1  0  0  0  0
  8  9  2  0  0  0  0
  4 10  1  0  0  0  0
  9 10  1  0  0  0  0
  8 11  1  0  0  0  0
 11 12  2  0  0  0  0
  1 13  1  0  0  0  0
  1 14  1  0  0  0  0
  1 15  1  0  0  0  0
  3 16  1  0  0  0  0
  3 17  1  0  0  0  0
  6 18  1  0  0  0  0
  6 19  1  0  0  0  0
  7 20  1  0  0  0  0
  7 21  1  0  0  0  0
  9 22  1  0  0  0  0
 10 23  1  0  0  0  0
 10 24  1  0  0  0  0
 11 25  1  0  0  0  0
M  END
