 xtb: 6.7.1 (edcfbbe)
          04112511493D

 17 16  0     0  0            999 V2000
   -3.0706    0.7913    0.0576 C   0  0  0  0  0  0  0  0  0  0  0  0
   -1.5837    0.6848    0.3732 C   0  0  0  0  0  0  0  0  0  0  0  0
   -0.9248   -0.4196   -0.4557 C   0  0  0  0  0  0  0  0  0  0  0  0
    0.5455   -0.5869   -0.1744 C   0  0  0  0  0  0  0  0  0  0  0  0
    1.1144   -1.6602   -0.1446 O   0  0  0  0  0  0  0  0  0  0  0  0
    1.1565    0.5726    0.0248 O   0  0  0  0  0  0  0  0  0  0  0  0
    2.5619    0.5797    0.2914 C   0  0  0  0  0  0  0  0  0  0  0  0
   -3.2221    1.0298   -0.9921 H   0  0  0  0  0  0  0  0  0  0  0  0
   -3.5747   -0.1476    0.2730 H   0  0  0  0  0  0  0  0  0  0  0  0
   -3.5278    1.5728    0.6581 H   0  0  0  0  0  0  0  0  0  0  0  0
   -1.4496    0.4657    1.4341 H   0  0  0  0  0  0  0  0  0  0  0  0
   -1.0911    1.6342    0.1624 H   0  0  0  0  0  0  0  0  0  0  0  0
   -1.0218   -0.1834   -1.5184 H   0  0  0  0  0  0  0  0  0  0  0  0
   -1.4069   -1.3824   -0.2809 H   0  0  0  0  0  0  0  0  0  0  0  0
    2.7221    1.2599    1.1244 H   0  0  0  0  0  0  0  0  0  0  0  0
    3.0804    0.9380   -0.5971 H   0  0  0  0  0  0  0  0  0  0  0  0
    2.8982   -0.4275    0.5396 H   0  0  0  0  0  0  0  0  0  0  0  0
  1  2  1  0  0  0  0
  2  3  1  0  0  0  0
  3  4  1  0  0  0  0
  4  5  2  0  0  0  0
  4  6  1  0  0  0  0
  6  7  1  0  0  0  0
  1  8  1  0  0  0  0
  1  9  1  0  0  0  0
  1 10  1  0  0  0  0
  2 11  1  0  0  0  0
  2 12  1  0  0  0  0
  3 13  1  0  0  0  0
  3 14  1  0  0  0  0
  7 15  1  0  0  0  0
  7 16  1  0  0  0  0
  7 17  1  0  0  0  0
M  END
