 xtb: 6.7.1 (edcfbbe)
          04112511403D

 22 22  0     0  0            999 V2000
   -3.5607    1.3039   -0.0230 C   0  0  0  0  0  0  0  0  0  0  0  0
   -2.9295    0.0803    0.6342 C   0  0  0  0  0  0  0  0  0  0  0  0
   -2.0230   -0.7130   -0.3202 C   0  0  0  0  0  0  0  0  0  0  0  0
   -0.5501   -0.4277   -0.1835 C   0  0  0  0  0  0  0  0  0  0  0  0
    0.3669   -1.4573   -0.3578 C   0  0  0  0  0  0  0  0  0  0  0  0
    1.7287   -1.2383   -0.2593 C   0  0  0  0  0  0  0  0  0  0  0  0
    2.2079    0.0342    0.0234 C   0  0  0  0  0  0  0  0  0  0  0  0
    1.3021    1.0741    0.2012 C   0  0  0  0  0  0  0  0  0  0  0  0
   -0.0550    0.8410    0.0953 C   0  0  0  0  0  0  0  0  0  0  0  0
    3.5387    0.3094    0.1366 O   0  0  0  0  0  0  0  0  0  0  0  0
   -2.8039    1.9753   -0.4204 H   0  0  0  0  0  0  0  0  0  0  0  0
   -4.2062    0.9996   -0.8442 H   0  0  0  0  0  0  0  0  0  0  0  0
   -4.1619    1.8531    0.6982 H   0  0  0  0  0  0  0  0  0  0  0  0
   -3.7332   -0.5709    0.9835 H   0  0  0  0  0  0  0  0  0  0  0  0
   -2.3553    0.3849    1.5112 H   0  0  0  0  0  0  0  0  0  0  0  0
   -2.3240   -0.5024   -1.3508 H   0  0  0  0  0  0  0  0  0  0  0  0
   -2.1730   -1.7821   -0.1580 H   0  0  0  0  0  0  0  0  0  0  0  0
    0.0122   -2.4546   -0.5754 H   0  0  0  0  0  0  0  0  0  0  0  0
    2.4180   -2.0589   -0.3991 H   0  0  0  0  0  0  0  0  0  0  0  0
    1.6822    2.0598    0.4208 H   0  0  0  0  0  0  0  0  0  0  0  0
   -0.7310    1.6685    0.2379 H   0  0  0  0  0  0  0  0  0  0  0  0
    4.0626   -0.4919   -0.0113 H   0  0  0  0  0  0  0  0  0  0  0  0
  1  2  1  0  0  0  0
  2  3  1  0  0  0  0
  3  4  1  0  0  0  0
  4  5  4  0  0  0  0
  5  6  4  0  0  0  0
  6  7  4  0  0  0  0
  7  8  4  0  0  0  0
  4  9  4  0  0  0  0
  8  9  4  0  0  0  0
  7 10  1  0  0  0  0
  1 11  1  0  0  0  0
  1 12  1  0  0  0  0
  1 13  1  0  0  0  0
  2 14  1  0  0  0  0
  2 15  1  0  0  0  0
  3 16  1  0  0  0  0
  3 17  1  0  0  0  0
  5 18  1  0  0  0  0
  6 19  1  0  0  0  0
  8 20  1  0  0  0  0
  9 21  1  0  0  0  0
 10 22  1  0  0  0  0
M  END
