 xtb: 6.7.1 (edcfbbe)
          04082510373D

 16 15  0     0  0            999 V2000
   -2.0421   -0.0187    0.7567 C   0  0  0  0  0  0  0  0  0  0  0  0
   -1.4256   -0.6781   -0.4715 C   0  0  0  0  0  0  0  0  0  0  0  0
   -0.2563    0.1431   -1.0256 C   0  0  0  0  0  0  0  0  0  0  0  0
    0.9041    0.2548   -0.0679 C   0  0  0  0  0  0  0  0  0  0  0  0
    1.3488    1.3343    0.2754 O   0  0  0  0  0  0  0  0  0  0  0  0
    1.4843   -1.0384    0.4252 C   0  0  0  0  0  0  0  0  0  0  0  0
   -2.8616   -0.6203    1.1415 H   0  0  0  0  0  0  0  0  0  0  0  0
   -2.4272    0.9672    0.5061 H   0  0  0  0  0  0  0  0  0  0  0  0
   -1.3017    0.1032    1.5450 H   0  0  0  0  0  0  0  0  0  0  0  0
   -2.1845   -0.7641   -1.2507 H   0  0  0  0  0  0  0  0  0  0  0  0
   -1.0883   -1.6839   -0.2222 H   0  0  0  0  0  0  0  0  0  0  0  0
    0.1168   -0.3303   -1.9362 H   0  0  0  0  0  0  0  0  0  0  0  0
   -0.5948    1.1511   -1.2739 H   0  0  0  0  0  0  0  0  0  0  0  0
    0.8510   -1.4218    1.2231 H   0  0  0  0  0  0  0  0  0  0  0  0
    2.4780   -0.8673    0.8304 H   0  0  0  0  0  0  0  0  0  0  0  0
    1.5178   -1.7765   -0.3697 H   0  0  0  0  0  0  0  0  0  0  0  0
  1  2  1  0  0  0  0
  2  3  1  0  0  0  0
  3  4  1  0  0  0  0
  4  5  2  0  0  0  0
  4  6  1  0  0  0  0
  1  7  1  0  0  0  0
  1  8  1  0  0  0  0
  1  9  1  0  0  0  0
  2 10  1  0  0  0  0
  2 11  1  0  0  0  0
  3 12  1  0  0  0  0
  3 13  1  0  0  0  0
  6 14  1  0  0  0  0
  6 15  1  0  0  0  0
  6 16  1  0  0  0  0
M  END
