 xtb: 6.7.1 (edcfbbe)
          04112512193D

 17 16  0     0  0            999 V2000
   -2.0569    1.1709    0.7648 C   0  0  0  0  0  0  0  0  0  0  0  0
   -1.9400    0.0041   -0.2057 C   0  0  0  0  0  0  0  0  0  0  0  0
   -0.5386   -0.5225   -0.3844 C   0  0  0  0  0  0  0  0  0  0  0  0
   -0.2582   -1.4220   -1.1554 O   0  0  0  0  0  0  0  0  0  0  0  0
    0.3470    0.0883    0.3828 O   0  0  0  0  0  0  0  0  0  0  0  0
    1.7284   -0.3018    0.3138 C   0  0  0  0  0  0  0  0  0  0  0  0
    2.5953    0.9444    0.2611 C   0  0  0  0  0  0  0  0  0  0  0  0
   -1.7077    0.8835    1.7523 H   0  0  0  0  0  0  0  0  0  0  0  0
   -1.4616    2.0130    0.4238 H   0  0  0  0  0  0  0  0  0  0  0  0
   -3.0950    1.4822    0.8365 H   0  0  0  0  0  0  0  0  0  0  0  0
   -2.3021    0.2826   -1.1978 H   0  0  0  0  0  0  0  0  0  0  0  0
   -2.5506   -0.8390    0.1262 H   0  0  0  0  0  0  0  0  0  0  0  0
    1.9392   -0.8883    1.2125 H   0  0  0  0  0  0  0  0  0  0  0  0
    1.8688   -0.9329   -0.5693 H   0  0  0  0  0  0  0  0  0  0  0  0
    2.3808    1.5169   -0.6371 H   0  0  0  0  0  0  0  0  0  0  0  0
    2.4016    1.5670    1.1294 H   0  0  0  0  0  0  0  0  0  0  0  0
    3.6405    0.6528    0.2549 H   0  0  0  0  0  0  0  0  0  0  0  0
  1  2  1  0  0  0  0
  2  3  1  0  0  0  0
  3  4  2  0  0  0  0
  3  5  1  0  0  0  0
  5  6  1  0  0  0  0
  6  7  1  0  0  0  0
  1  8  1  0  0  0  0
  1  9  1  0  0  0  0
  1 10  1  0  0  0  0
  2 11  1  0  0  0  0
  2 12  1  0  0  0  0
  6 13  1  0  0  0  0
  6 14  1  0  0  0  0
  7 15  1  0  0  0  0
  7 16  1  0  0  0  0
  7 17  1  0  0  0  0
M  END
