 xtb: 6.7.1 (edcfbbe)
          04112511193D

 14 13  0     0  0            999 V2000
   -1.2192    0.1685   -0.3734 C   0  0  0  0  0  0  0  0  0  0  0  0
    0.1164    0.6141    0.2459 C   0  0  0  0  0  0  0  0  0  0  0  0
    1.3139   -0.1830   -0.2925 C   0  0  0  0  0  0  0  0  0  0  0  0
    1.1894   -1.5339    0.0791 O   0  0  0  0  0  0  0  0  0  0  0  0
    0.3294    1.9957    0.0731 O   0  0  0  0  0  0  0  0  0  0  0  0
   -1.7096   -0.9400    0.3426 O   0  0  0  0  0  0  0  0  0  0  0  0
   -1.0736   -0.0827   -1.4325 H   0  0  0  0  0  0  0  0  0  0  0  0
   -1.9190    1.0137   -0.2958 H   0  0  0  0  0  0  0  0  0  0  0  0
    0.0457    0.4489    1.3260 H   0  0  0  0  0  0  0  0  0  0  0  0
    2.2254    0.2603    0.1310 H   0  0  0  0  0  0  0  0  0  0  0  0
    1.3472   -0.0846   -1.3884 H   0  0  0  0  0  0  0  0  0  0  0  0
    1.9712   -2.0201   -0.2183 H   0  0  0  0  0  0  0  0  0  0  0  0
    0.4138    2.1944   -0.8711 H   0  0  0  0  0  0  0  0  0  0  0  0
   -2.4977   -1.2846   -0.0996 H   0  0  0  0  0  0  0  0  0  0  0  0
  1  2  1  0  0  0  0
  2  3  1  0  0  0  0
  3  4  1  0  0  0  0
  2  5  1  0  0  0  0
  1  6  1  0  0  0  0
  1  7  1  0  0  0  0
  1  8  1  0  0  0  0
  2  9  1  0  0  0  0
  3 10  1  0  0  0  0
  3 11  1  0  0  0  0
  4 12  1  0  0  0  0
  5 13  1  0  0  0  0
  6 14  1  0  0  0  0
M  END
