 xtb: 6.7.1 (edcfbbe)
          04112512193D

 17 16  0     0  0            999 V2000
   -2.2250    1.2560    0.2809 C   0  0  0  0  0  0  0  0  0  0  0  0
   -1.8884   -0.1028   -0.3171 C   0  0  0  0  0  0  0  0  0  0  0  0
   -0.4575   -0.5336   -0.1189 C   0  0  0  0  0  0  0  0  0  0  0  0
   -0.0365   -1.6263   -0.4492 O   0  0  0  0  0  0  0  0  0  0  0  0
    0.2909    0.3946    0.4558 O   0  0  0  0  0  0  0  0  0  0  0  0
    1.6805    0.1118    0.6827 C   0  0  0  0  0  0  0  0  0  0  0  0
    2.5190    0.4711   -0.5345 C   0  0  0  0  0  0  0  0  0  0  0  0
   -1.6127    2.0334   -0.1666 H   0  0  0  0  0  0  0  0  0  0  0  0
   -3.2711    1.4851    0.0993 H   0  0  0  0  0  0  0  0  0  0  0  0
   -2.0471    1.2564    1.3526 H   0  0  0  0  0  0  0  0  0  0  0  0
   -2.0695   -0.1058   -1.3947 H   0  0  0  0  0  0  0  0  0  0  0  0
   -2.5179   -0.8864    0.1097 H   0  0  0  0  0  0  0  0  0  0  0  0
    1.9485    0.7248    1.5439 H   0  0  0  0  0  0  0  0  0  0  0  0
    1.7869   -0.9506    0.9228 H   0  0  0  0  0  0  0  0  0  0  0  0
    2.3670    1.5137   -0.8000 H   0  0  0  0  0  0  0  0  0  0  0  0
    3.5678    0.3074   -0.3097 H   0  0  0  0  0  0  0  0  0  0  0  0
    2.2372   -0.1551   -1.3783 H   0  0  0  0  0  0  0  0  0  0  0  0
  1  2  1  0  0  0  0
  2  3  1  0  0  0  0
  3  4  2  0  0  0  0
  3  5  1  0  0  0  0
  5  6  1  0  0  0  0
  6  7  1  0  0  0  0
  1  8  1  0  0  0  0
  1  9  1  0  0  0  0
  1 10  1  0  0  0  0
  2 11  1  0  0  0  0
  2 12  1  0  0  0  0
  6 13  1  0  0  0  0
  6 14  1  0  0  0  0
  7 15  1  0  0  0  0
  7 16  1  0  0  0  0
  7 17  1  0  0  0  0
M  END
