 xtb: 6.7.1 (edcfbbe)
          04112511493D

 21 20  0     0  0            999 V2000
    1.8361   -0.8332    0.8615 C   0  0  0  0  0  0  0  0  0  0  0  0
    1.1792    0.4145    0.2748 C   0  0  0  0  0  0  0  0  0  0  0  0
    0.8405    1.0664    1.0952 H   0  0  0  0  0  0  0  0  0  0  0  0
   -0.0063    0.0798   -0.6365 C   0  0  0  0  0  0  0  0  0  0  0  0
   -1.2431   -0.4957    0.0597 C   0  0  0  0  0  0  0  0  0  0  0  0
   -1.9107    0.5279    0.9758 C   0  0  0  0  0  0  0  0  0  0  0  0
   -2.2397   -0.9713   -0.9973 C   0  0  0  0  0  0  0  0  0  0  0  0
    2.0962    1.1440   -0.5319 O   0  0  0  0  0  0  0  0  0  0  0  0
    1.1270   -1.3783    1.4761 H   0  0  0  0  0  0  0  0  0  0  0  0
    2.1817   -1.4803    0.0587 H   0  0  0  0  0  0  0  0  0  0  0  0
    2.6868   -0.5595    1.4820 H   0  0  0  0  0  0  0  0  0  0  0  0
   -0.2815    0.9991   -1.1588 H   0  0  0  0  0  0  0  0  0  0  0  0
    0.3492   -0.6264   -1.3900 H   0  0  0  0  0  0  0  0  0  0  0  0
   -0.9450   -1.3612    0.6598 H   0  0  0  0  0  0  0  0  0  0  0  0
   -1.2524    0.8175    1.7903 H   0  0  0  0  0  0  0  0  0  0  0  0
   -2.8176    0.1100    1.4066 H   0  0  0  0  0  0  0  0  0  0  0  0
   -2.1768    1.4199    0.4131 H   0  0  0  0  0  0  0  0  0  0  0  0
   -1.7917   -1.7296   -1.6348 H   0  0  0  0  0  0  0  0  0  0  0  0
   -3.1216   -1.3971   -0.5247 H   0  0  0  0  0  0  0  0  0  0  0  0
   -2.5526   -0.1382   -1.6226 H   0  0  0  0  0  0  0  0  0  0  0  0
    2.8944    1.3282   -0.0186 H   0  0  0  0  0  0  0  0  0  0  0  0
  1  2  1  0  0  0  0
  2  3  1  0  0  0  0
  2  4  1  0  0  0  0
  4  5  1  0  0  0  0
  5  6  1  0  0  0  0
  5  7  1  0  0  0  0
  2  8  1  0  0  0  0
  1  9  1  0  0  0  0
  1 10  1  0  0  0  0
  1 11  1  0  0  0  0
  4 12  1  0  0  0  0
  4 13  1  0  0  0  0
  5 14  1  0  0  0  0
  6 15  1  0  0  0  0
  6 16  1  0  0  0  0
  6 17  1  0  0  0  0
  7 18  1  0  0  0  0
  7 19  1  0  0  0  0
  7 20  1  0  0  0  0
  8 21  1  0  0  0  0
M  END
