 xtb: 6.7.1 (edcfbbe)
          04112512083D

 17 16  0     0  0            999 V2000
   -2.1255   -0.5394    0.9202 C   0  0  0  0  0  0  0  0  0  0  0  0
   -2.0749    0.5837   -0.1091 C   0  0  0  0  0  0  0  0  0  0  0  0
   -0.8421    0.4910   -1.0043 C   0  0  0  0  0  0  0  0  0  0  0  0
    0.3477    0.7742   -0.2540 O   0  0  0  0  0  0  0  0  0  0  0  0
    1.2116   -0.2030   -0.0056 C   0  0  0  0  0  0  0  0  0  0  0  0
    1.0811   -1.3415   -0.4056 O   0  0  0  0  0  0  0  0  0  0  0  0
    2.3615    0.2886    0.8233 C   0  0  0  0  0  0  0  0  0  0  0  0
   -1.2621   -0.4947    1.5813 H   0  0  0  0  0  0  0  0  0  0  0  0
   -3.0243   -0.4581    1.5250 H   0  0  0  0  0  0  0  0  0  0  0  0
   -2.1226   -1.5094    0.4272 H   0  0  0  0  0  0  0  0  0  0  0  0
   -2.0649    1.5498    0.3973 H   0  0  0  0  0  0  0  0  0  0  0  0
   -2.9552    0.5372   -0.7500 H   0  0  0  0  0  0  0  0  0  0  0  0
   -0.7500   -0.5074   -1.4431 H   0  0  0  0  0  0  0  0  0  0  0  0
   -0.8801    1.2442   -1.7942 H   0  0  0  0  0  0  0  0  0  0  0  0
    3.1161   -0.4872    0.8968 H   0  0  0  0  0  0  0  0  0  0  0  0
    1.9973    0.5454    1.8150 H   0  0  0  0  0  0  0  0  0  0  0  0
    2.7741    1.1862    0.3724 H   0  0  0  0  0  0  0  0  0  0  0  0
  1  2  1  0  0  0  0
  2  3  1  0  0  0  0
  3  4  1  0  0  0  0
  4  5  1  0  0  0  0
  5  6  2  0  0  0  0
  5  7  1  0  0  0  0
  1  8  1  0  0  0  0
  1  9  1  0  0  0  0
  1 10  1  0  0  0  0
  2 11  1  0  0  0  0
  2 12  1  0  0  0  0
  3 13  1  0  0  0  0
  3 14  1  0  0  0  0
  7 15  1  0  0  0  0
  7 16  1  0  0  0  0
  7 17  1  0  0  0  0
M  END
