 xtb: 6.7.1 (edcfbbe)
          04112512193D

 17 16  0     0  0            999 V2000
   -2.2983    0.3603   -1.0417 C   0  0  0  0  0  0  0  0  0  0  0  0
   -1.8176    0.4119    0.4119 C   0  0  0  0  0  0  0  0  0  0  0  0
   -0.4490   -0.2122    0.4960 C   0  0  0  0  0  0  0  0  0  0  0  0
   -0.2374   -1.3962    0.6589 O   0  0  0  0  0  0  0  0  0  0  0  0
    0.5075    0.6941    0.3440 O   0  0  0  0  0  0  0  0  0  0  0  0
    1.8759    0.2552    0.3190 C   0  0  0  0  0  0  0  0  0  0  0  0
    2.3142   -0.0757   -1.0995 C   0  0  0  0  0  0  0  0  0  0  0  0
   -3.2945    0.7856   -1.1136 H   0  0  0  0  0  0  0  0  0  0  0  0
   -1.6269    0.9267   -1.6820 H   0  0  0  0  0  0  0  0  0  0  0  0
   -2.3297   -0.6694   -1.3903 H   0  0  0  0  0  0  0  0  0  0  0  0
   -2.4969   -0.1549    1.0474 H   0  0  0  0  0  0  0  0  0  0  0  0
   -1.7564    1.4454    0.7488 H   0  0  0  0  0  0  0  0  0  0  0  0
    2.4439    1.0930    0.7247 H   0  0  0  0  0  0  0  0  0  0  0  0
    1.9728   -0.6203    0.9681 H   0  0  0  0  0  0  0  0  0  0  0  0
    3.3649   -0.3465   -1.0976 H   0  0  0  0  0  0  0  0  0  0  0  0
    1.7345   -0.9125   -1.4829 H   0  0  0  0  0  0  0  0  0  0  0  0
    2.1663    0.7843   -1.7470 H   0  0  0  0  0  0  0  0  0  0  0  0
  1  2  1  0  0  0  0
  2  3  1  0  0  0  0
  3  4  2  0  0  0  0
  3  5  1  0  0  0  0
  5  6  1  0  0  0  0
  6  7  1  0  0  0  0
  1  8  1  0  0  0  0
  1  9  1  0  0  0  0
  1 10  1  0  0  0  0
  2 11  1  0  0  0  0
  2 12  1  0  0  0  0
  6 13  1  0  0  0  0
  6 14  1  0  0  0  0
  7 15  1  0  0  0  0
  7 16  1  0  0  0  0
  7 17  1  0  0  0  0
M  END
