 xtb: 6.7.1 (edcfbbe)
          04112512193D

 17 16  0     0  0            999 V2000
   -2.9638    0.1516   -0.1071 C   0  0  0  0  0  0  0  0  0  0  0  0
   -1.6382    0.6208    0.4806 C   0  0  0  0  0  0  0  0  0  0  0  0
   -0.4731   -0.1813   -0.0417 C   0  0  0  0  0  0  0  0  0  0  0  0
   -0.5322   -1.3305   -0.4264 O   0  0  0  0  0  0  0  0  0  0  0  0
    0.6480    0.5284   -0.0105 O   0  0  0  0  0  0  0  0  0  0  0  0
    1.8828   -0.0896   -0.4145 C   0  0  0  0  0  0  0  0  0  0  0  0
    2.9847    0.3428    0.5366 C   0  0  0  0  0  0  0  0  0  0  0  0
   -3.0778   -0.9188    0.0443 H   0  0  0  0  0  0  0  0  0  0  0  0
   -3.7897    0.6688    0.3710 H   0  0  0  0  0  0  0  0  0  0  0  0
   -2.9971    0.3472   -1.1758 H   0  0  0  0  0  0  0  0  0  0  0  0
   -1.6455    0.4881    1.5653 H   0  0  0  0  0  0  0  0  0  0  0  0
   -1.4522    1.6741    0.2730 H   0  0  0  0  0  0  0  0  0  0  0  0
    1.7444   -1.1753   -0.4129 H   0  0  0  0  0  0  0  0  0  0  0  0
    2.0912    0.2424   -1.4357 H   0  0  0  0  0  0  0  0  0  0  0  0
    2.7687    0.0017    1.5452 H   0  0  0  0  0  0  0  0  0  0  0  0
    3.9271   -0.0845    0.2100 H   0  0  0  0  0  0  0  0  0  0  0  0
    3.0640    1.4260    0.5421 H   0  0  0  0  0  0  0  0  0  0  0  0
  1  2  1  0  0  0  0
  2  3  1  0  0  0  0
  3  4  2  0  0  0  0
  3  5  1  0  0  0  0
  5  6  1  0  0  0  0
  6  7  1  0  0  0  0
  1  8  1  0  0  0  0
  1  9  1  0  0  0  0
  1 10  1  0  0  0  0
  2 11  1  0  0  0  0
  2 12  1  0  0  0  0
  6 13  1  0  0  0  0
  6 14  1  0  0  0  0
  7 15  1  0  0  0  0
  7 16  1  0  0  0  0
  7 17  1  0  0  0  0
M  END
