 xtb: 6.7.1 (edcfbbe)
          04112511223D

 22 21  0     0  0            999 V2000
    1.6570    1.4899   -0.3149 C   0  0  0  0  0  0  0  0  0  0  0  0
    1.3397    0.0395    0.0779 C   0  0  0  0  0  0  0  0  0  0  0  0
    1.5020   -0.9001   -1.1131 C   0  0  0  0  0  0  0  0  0  0  0  0
   -0.0001    0.0002    0.7919 C   0  0  0  0  0  0  0  0  0  0  0  0
   -0.0002    0.0007    2.0128 O   0  0  0  0  0  0  0  0  0  0  0  0
   -1.3397   -0.0397    0.0776 C   0  0  0  0  0  0  0  0  0  0  0  0
   -1.6567   -1.4902   -0.3148 C   0  0  0  0  0  0  0  0  0  0  0  0
   -1.5019    0.8997   -1.1136 C   0  0  0  0  0  0  0  0  0  0  0  0
    1.4704    2.1592    0.5224 H   0  0  0  0  0  0  0  0  0  0  0  0
    1.0579    1.8079   -1.1612 H   0  0  0  0  0  0  0  0  0  0  0  0
    2.7067    1.5638   -0.5868 H   0  0  0  0  0  0  0  0  0  0  0  0
    2.0657   -0.2536    0.8472 H   0  0  0  0  0  0  0  0  0  0  0  0
    2.5305   -0.8444   -1.4622 H   0  0  0  0  0  0  0  0  0  0  0  0
    1.2980   -1.9272   -0.8223 H   0  0  0  0  0  0  0  0  0  0  0  0
    0.8526   -0.6249   -1.9373 H   0  0  0  0  0  0  0  0  0  0  0  0
   -2.0660    0.2536    0.8467 H   0  0  0  0  0  0  0  0  0  0  0  0
   -1.4699   -2.1592    0.5225 H   0  0  0  0  0  0  0  0  0  0  0  0
   -2.7065   -1.5644   -0.5866 H   0  0  0  0  0  0  0  0  0  0  0  0
   -1.0577   -1.8082   -1.1612 H   0  0  0  0  0  0  0  0  0  0  0  0
   -0.8523    0.6244   -1.9376 H   0  0  0  0  0  0  0  0  0  0  0  0
   -2.5304    0.8437   -1.4630 H   0  0  0  0  0  0  0  0  0  0  0  0
   -1.2982    1.9268   -0.8229 H   0  0  0  0  0  0  0  0  0  0  0  0
  1  2  1  0  0  0  0
  2  3  1  0  0  0  0
  2  4  1  0  0  0  0
  4  5  2  0  0  0  0
  4  6  1  0  0  0  0
  6  7  1  0  0  0  0
  6  8  1  0  0  0  0
  1  9  1  0  0  0  0
  1 10  1  0  0  0  0
  1 11  1  0  0  0  0
  2 12  1  0  0  0  0
  3 13  1  0  0  0  0
  3 14  1  0  0  0  0
  3 15  1  0  0  0  0
  6 16  1  0  0  0  0
  7 17  1  0  0  0  0
  7 18  1  0  0  0  0
  7 19  1  0  0  0  0
  8 20  1  0  0  0  0
  8 21  1  0  0  0  0
  8 22  1  0  0  0  0
M  END
