 xtb: 6.7.1 (edcfbbe)
          04112511143D

 17 16  0     0  0            999 V2000
    1.7090    0.6368   -0.9678 C   0  0  0  0  0  0  0  0  0  0  0  0
    1.4149    0.1000    0.4314 C   0  0  0  0  0  0  0  0  0  0  0  0
    1.6105   -1.4133    0.4869 C   0  0  0  0  0  0  0  0  0  0  0  0
    0.0057    0.5035    0.8882 C   0  0  0  0  0  0  0  0  0  0  0  0
   -1.1191    0.0998   -0.0272 C   0  0  0  0  0  0  0  0  0  0  0  0
   -1.1339   -0.8322   -0.8016 O   0  0  0  0  0  0  0  0  0  0  0  0
   -2.1676    0.9016    0.1221 O   0  0  0  0  0  0  0  0  0  0  0  0
    2.7362    0.4180   -1.2473 H   0  0  0  0  0  0  0  0  0  0  0  0
    1.5627    1.7139   -1.0059 H   0  0  0  0  0  0  0  0  0  0  0  0
    1.0502    0.1695   -1.6963 H   0  0  0  0  0  0  0  0  0  0  0  0
    2.1180    0.5636    1.1326 H   0  0  0  0  0  0  0  0  0  0  0  0
    2.6187   -1.6733    0.1749 H   0  0  0  0  0  0  0  0  0  0  0  0
    1.4564   -1.7841    1.4976 H   0  0  0  0  0  0  0  0  0  0  0  0
    0.9052   -1.9075   -0.1758 H   0  0  0  0  0  0  0  0  0  0  0  0
   -0.0608    1.5846    1.0194 H   0  0  0  0  0  0  0  0  0  0  0  0
   -0.2084    0.0426    1.8564 H   0  0  0  0  0  0  0  0  0  0  0  0
   -2.9226    0.6428   -0.4408 H   0  0  0  0  0  0  0  0  0  0  0  0
  1  2  1  0  0  0  0
  2  3  1  0  0  0  0
  2  4  1  0  0  0  0
  4  5  1  0  0  0  0
  5  6  2  0  0  0  0
  5  7  1  0  0  0  0
  1  8  1  0  0  0  0
  1  9  1  0  0  0  0
  1 10  1  0  0  0  0
  2 11  1  0  0  0  0
  3 12  1  0  0  0  0
  3 13  1  0  0  0  0
  3 14  1  0  0  0  0
  4 15  1  0  0  0  0
  4 16  1  0  0  0  0
  7 17  1  0  0  0  0
M  END
