 xtb: 6.7.1 (edcfbbe)
          04112511493D

 21 20  0     0  0            999 V2000
    1.8973    1.1378   -0.0013 C   0  0  0  0  0  0  0  0  0  0  0  0
    1.3878   -0.2545   -0.3771 C   0  0  0  0  0  0  0  0  0  0  0  0
    2.0125   -0.6410   -1.2024 H   0  0  0  0  0  0  0  0  0  0  0  0
   -0.0584   -0.2482   -0.8965 C   0  0  0  0  0  0  0  0  0  0  0  0
   -1.1129    0.4149   -0.0018 C   0  0  0  0  0  0  0  0  0  0  0  0
   -2.3846    0.6644   -0.8131 C   0  0  0  0  0  0  0  0  0  0  0  0
   -1.4353   -0.4427    1.2190 C   0  0  0  0  0  0  0  0  0  0  0  0
    1.4887   -1.1553    0.7151 O   0  0  0  0  0  0  0  0  0  0  0  0
    1.4190    1.4800    0.9125 H   0  0  0  0  0  0  0  0  0  0  0  0
    2.9729    1.1152    0.1600 H   0  0  0  0  0  0  0  0  0  0  0  0
    1.6822    1.8394   -0.8015 H   0  0  0  0  0  0  0  0  0  0  0  0
   -0.0453    0.2626   -1.8615 H   0  0  0  0  0  0  0  0  0  0  0  0
   -0.3491   -1.2867   -1.0694 H   0  0  0  0  0  0  0  0  0  0  0  0
   -0.7348    1.3833    0.3378 H   0  0  0  0  0  0  0  0  0  0  0  0
   -3.1494    1.1167   -0.1863 H   0  0  0  0  0  0  0  0  0  0  0  0
   -2.7731   -0.2729   -1.2057 H   0  0  0  0  0  0  0  0  0  0  0  0
   -2.1862    1.3318   -1.6486 H   0  0  0  0  0  0  0  0  0  0  0  0
   -1.8935   -1.3794    0.9081 H   0  0  0  0  0  0  0  0  0  0  0  0
   -0.5304   -0.6777    1.7708 H   0  0  0  0  0  0  0  0  0  0  0  0
   -2.1265    0.0774    1.8787 H   0  0  0  0  0  0  0  0  0  0  0  0
    2.4015   -1.1640    1.0322 H   0  0  0  0  0  0  0  0  0  0  0  0
  1  2  1  0  0  0  0
  2  3  1  0  0  0  0
  2  4  1  0  0  0  0
  4  5  1  0  0  0  0
  5  6  1  0  0  0  0
  5  7  1  0  0  0  0
  2  8  1  0  0  0  0
  1  9  1  0  0  0  0
  1 10  1  0  0  0  0
  1 11  1  0  0  0  0
  4 12  1  0  0  0  0
  4 13  1  0  0  0  0
  5 14  1  0  0  0  0
  6 15  1  0  0  0  0
  6 16  1  0  0  0  0
  6 17  1  0  0  0  0
  7 18  1  0  0  0  0
  7 19  1  0  0  0  0
  7 20  1  0  0  0  0
  8 21  1  0  0  0  0
M  END
