 xtb: 6.7.1 (edcfbbe)
          04112512013D

 22 22  0     0  0            999 V2000
    4.3092   -1.2430    1.1900 C   0  0  0  0  0  0  0  0  0  0  0  0
    3.0243   -0.9733    0.4108 C   0  0  0  0  0  0  0  0  0  0  0  0
    3.1888    0.2192   -0.5003 C   0  0  0  0  0  0  0  0  0  0  0  0
    4.2738    0.5688   -0.9464 O   0  0  0  0  0  0  0  0  0  0  0  0
    2.0904    0.9632   -0.8069 N   0  0  0  0  0  0  0  0  0  0  0  0
    0.7442    0.8238   -0.4718 C   0  0  0  0  0  0  0  0  0  0  0  0
   -0.0088    1.9819   -0.2635 C   0  0  0  0  0  0  0  0  0  0  0  0
   -1.3484    1.9050    0.0572 C   0  0  0  0  0  0  0  0  0  0  0  0
   -1.9675    0.6686    0.1699 C   0  0  0  0  0  0  0  0  0  0  0  0
   -1.2326   -0.4863   -0.0651 C   0  0  0  0  0  0  0  0  0  0  0  0
    0.1114   -0.4147   -0.3910 C   0  0  0  0  0  0  0  0  0  0  0  0
   -1.9960   -2.0396    0.0314 Cl  0  0  0  0  0  0  0  0  0  0  0  0
   -3.6486    0.5708    0.5831 Cl  0  0  0  0  0  0  0  0  0  0  0  0
    4.2087   -2.1517    1.7760 H   0  0  0  0  0  0  0  0  0  0  0  0
    4.5285   -0.4149    1.8594 H   0  0  0  0  0  0  0  0  0  0  0  0
    5.1454   -1.3519    0.5040 H   0  0  0  0  0  0  0  0  0  0  0  0
    2.1917   -0.8037    1.0930 H   0  0  0  0  0  0  0  0  0  0  0  0
    2.8008   -1.8435   -0.2101 H   0  0  0  0  0  0  0  0  0  0  0  0
    2.3223    1.8241   -1.2925 H   0  0  0  0  0  0  0  0  0  0  0  0
    0.4616    2.9481   -0.3468 H   0  0  0  0  0  0  0  0  0  0  0  0
   -1.9238    2.7998    0.2258 H   0  0  0  0  0  0  0  0  0  0  0  0
    0.6395   -1.3260   -0.6075 H   0  0  0  0  0  0  0  0  0  0  0  0
  1  2  1  0  0  0  0
  2  3  1  0  0  0  0
  3  4  2  0  0  0  0
  3  5  4  0  0  0  0
  5  6  1  0  0  0  0
  6  7  4  0  0  0  0
  7  8  4  0  0  0  0
  8  9  4  0  0  0  0
  9 10  4  0  0  0  0
  6 11  4  0  0  0  0
 10 11  4  0  0  0  0
 10 12  1  0  0  0  0
  9 13  1  0  0  0  0
  1 14  1  0  0  0  0
  1 15  1  0  0  0  0
  1 16  1  0  0  0  0
  2 17  1  0  0  0  0
  2 18  1  0  0  0  0
  5 19  1  0  0  0  0
  7 20  1  0  0  0  0
  8 21  1  0  0  0  0
 11 22  1  0  0  0  0
M  END
