 xtb: 6.7.1 (edcfbbe)
          04072508213D

 16 15  0     0  0            999 V2000
   -2.6403   -0.5804   -0.1427 C   0  0  0  0  0  0  0  0  0  0  0  0
   -1.2565   -0.2881    0.4247 C   0  0  0  0  0  0  0  0  0  0  0  0
   -0.5402    0.8043   -0.3656 C   0  0  0  0  0  0  0  0  0  0  0  0
    0.8634    1.0856    0.1835 C   0  0  0  0  0  0  0  0  0  0  0  0
    1.7402   -0.0570    0.0257 C   0  0  0  0  0  0  0  0  0  0  0  0
    2.4514   -1.0087   -0.1202 C   0  0  0  0  0  0  0  0  0  0  0  0
   -3.2597    0.3137   -0.1177 H   0  0  0  0  0  0  0  0  0  0  0  0
   -3.1342   -1.3572    0.4358 H   0  0  0  0  0  0  0  0  0  0  0  0
   -2.5651   -0.9160   -1.1747 H   0  0  0  0  0  0  0  0  0  0  0  0
   -1.3506    0.0231    1.4680 H   0  0  0  0  0  0  0  0  0  0  0  0
   -0.6515   -1.1976    0.4034 H   0  0  0  0  0  0  0  0  0  0  0  0
   -0.4629    0.5012   -1.4123 H   0  0  0  0  0  0  0  0  0  0  0  0
   -1.1257    1.7255   -0.3239 H   0  0  0  0  0  0  0  0  0  0  0  0
    0.8005    1.3378    1.2456 H   0  0  0  0  0  0  0  0  0  0  0  0
    1.3026    1.9356   -0.3456 H   0  0  0  0  0  0  0  0  0  0  0  0
    3.0814   -1.8382   -0.2418 H   0  0  0  0  0  0  0  0  0  0  0  0
  1  2  1  0  0  0  0
  2  3  1  0  0  0  0
  3  4  1  0  0  0  0
  4  5  1  0  0  0  0
  5  6  3  0  0  0  0
  1  7  1  0  0  0  0
  1  8  1  0  0  0  0
  1  9  1  0  0  0  0
  2 10  1  0  0  0  0
  2 11  1  0  0  0  0
  3 12  1  0  0  0  0
  3 13  1  0  0  0  0
  4 14  1  0  0  0  0
  4 15  1  0  0  0  0
  6 16  1  0  0  0  0
M  END
