 xtb: 6.7.1 (edcfbbe)
          04072505513D

 15 14  0     0  0            999 V2000
    2.0162   -0.9159   -0.1769 C   0  0  0  0  0  0  0  0  0  0  0  0
    1.6114    0.3928    0.4954 C   0  0  0  0  0  0  0  0  0  0  0  0
    0.5839    1.1880   -0.3220 C   0  0  0  0  0  0  0  0  0  0  0  0
   -0.8564    1.0018    0.1347 C   0  0  0  0  0  0  0  0  0  0  0  0
   -1.5135   -0.6957   -0.0845 S   0  0  0  0  0  0  0  0  0  0  0  0
    2.5324   -0.7131   -1.1128 H   0  0  0  0  0  0  0  0  0  0  0  0
    1.1478   -1.5312   -0.3971 H   0  0  0  0  0  0  0  0  0  0  0  0
    2.6862   -1.4814    0.4664 H   0  0  0  0  0  0  0  0  0  0  0  0
    2.5074    1.0008    0.6329 H   0  0  0  0  0  0  0  0  0  0  0  0
    1.2063    0.1876    1.4889 H   0  0  0  0  0  0  0  0  0  0  0  0
    0.6647    0.9133   -1.3753 H   0  0  0  0  0  0  0  0  0  0  0  0
    0.7973    2.2564   -0.2410 H   0  0  0  0  0  0  0  0  0  0  0  0
   -0.9790    1.2597    1.1855 H   0  0  0  0  0  0  0  0  0  0  0  0
   -1.5246    1.6219   -0.4632 H   0  0  0  0  0  0  0  0  0  0  0  0
   -0.8708   -1.2421    0.9408 H   0  0  0  0  0  0  0  0  0  0  0  0
  1  2  1  0  0  0  0
  2  3  1  0  0  0  0
  3  4  1  0  0  0  0
  4  5  1  0  0  0  0
  1  6  1  0  0  0  0
  1  7  1  0  0  0  0
  1  8  1  0  0  0  0
  2  9  1  0  0  0  0
  2 10  1  0  0  0  0
  3 11  1  0  0  0  0
  3 12  1  0  0  0  0
  4 13  1  0  0  0  0
  4 14  1  0  0  0  0
  5 15  1  0  0  0  0
M  END
