 xtb: 6.7.1 (edcfbbe)
          04112511583D

 18 17  0     0  0            999 V2000
   -2.4252    0.2751   -0.1386 C   0  0  0  0  0  0  0  0  0  0  0  0
   -0.9656    0.6806   -0.3064 C   0  0  0  0  0  0  0  0  0  0  0  0
   -0.0366   -0.1861    0.5481 C   0  0  0  0  0  0  0  0  0  0  0  0
    1.3846    0.3921    0.6486 C   0  0  0  0  0  0  0  0  0  0  0  0
    2.0666    0.5417   -0.7071 C   0  0  0  0  0  0  0  0  0  0  0  0
   -0.0305   -1.4872   -0.0170 O   0  0  0  0  0  0  0  0  0  0  0  0
   -2.5461   -0.7758   -0.3890 H   0  0  0  0  0  0  0  0  0  0  0  0
   -2.7488    0.4263    0.8890 H   0  0  0  0  0  0  0  0  0  0  0  0
   -3.0602    0.8658   -0.7934 H   0  0  0  0  0  0  0  0  0  0  0  0
   -0.6781    0.5606   -1.3509 H   0  0  0  0  0  0  0  0  0  0  0  0
   -0.8339    1.7252   -0.0221 H   0  0  0  0  0  0  0  0  0  0  0  0
   -0.4549   -0.2391    1.5682 H   0  0  0  0  0  0  0  0  0  0  0  0
    1.3291    1.3595    1.1498 H   0  0  0  0  0  0  0  0  0  0  0  0
    1.9810   -0.2734    1.2782 H   0  0  0  0  0  0  0  0  0  0  0  0
    1.6120    1.3427   -1.2832 H   0  0  0  0  0  0  0  0  0  0  0  0
    3.1210    0.7698   -0.5744 H   0  0  0  0  0  0  0  0  0  0  0  0
    1.9774   -0.3831   -1.2725 H   0  0  0  0  0  0  0  0  0  0  0  0
    0.5035   -2.0707    0.5375 H   0  0  0  0  0  0  0  0  0  0  0  0
  1  2  1  0  0  0  0
  2  3  1  0  0  0  0
  3  4  1  0  0  0  0
  4  5  1  0  0  0  0
  3  6  1  0  0  0  0
  1  7  1  0  0  0  0
  1  8  1  0  0  0  0
  1  9  1  0  0  0  0
  2 10  1  0  0  0  0
  2 11  1  0  0  0  0
  3 12  1  0  0  0  0
  4 13  1  0  0  0  0
  4 14  1  0  0  0  0
  5 15  1  0  0  0  0
  5 16  1  0  0  0  0
  5 17  1  0  0  0  0
  6 18  1  0  0  0  0
M  END
