 xtb: 6.7.1 (edcfbbe)
          04112511483D

 21 20  0     0  0            999 V2000
    2.5510   -0.4006   -0.5463 C   0  0  0  0  0  0  0  0  0  0  0  0
    1.2784   -0.0766    0.2389 C   0  0  0  0  0  0  0  0  0  0  0  0
    1.2254   -0.7361    1.1222 H   0  0  0  0  0  0  0  0  0  0  0  0
    0.0339   -0.3058   -0.6275 C   0  0  0  0  0  0  0  0  0  0  0  0
   -1.2701   -0.4795    0.1604 C   0  0  0  0  0  0  0  0  0  0  0  0
   -1.7413    0.8371    0.7716 C   0  0  0  0  0  0  0  0  0  0  0  0
   -2.3558   -1.0501   -0.7516 C   0  0  0  0  0  0  0  0  0  0  0  0
    1.2851    1.2745    0.6735 O   0  0  0  0  0  0  0  0  0  0  0  0
    2.5487   -1.4436   -0.8485 H   0  0  0  0  0  0  0  0  0  0  0  0
    2.6058    0.2259   -1.4334 H   0  0  0  0  0  0  0  0  0  0  0  0
    3.4333   -0.2209    0.0644 H   0  0  0  0  0  0  0  0  0  0  0  0
   -0.0632    0.5418   -1.3081 H   0  0  0  0  0  0  0  0  0  0  0  0
    0.2024   -1.2053   -1.2215 H   0  0  0  0  0  0  0  0  0  0  0  0
   -1.0876   -1.1956    0.9706 H   0  0  0  0  0  0  0  0  0  0  0  0
   -2.0023    1.5424   -0.0146 H   0  0  0  0  0  0  0  0  0  0  0  0
   -0.9555    1.2809    1.3752 H   0  0  0  0  0  0  0  0  0  0  0  0
   -2.6169    0.6755    1.3964 H   0  0  0  0  0  0  0  0  0  0  0  0
   -2.0620   -2.0210   -1.1436 H   0  0  0  0  0  0  0  0  0  0  0  0
   -3.2869   -1.1684   -0.2027 H   0  0  0  0  0  0  0  0  0  0  0  0
   -2.5342   -0.3794   -1.5892 H   0  0  0  0  0  0  0  0  0  0  0  0
    2.1147    1.4544    1.1355 H   0  0  0  0  0  0  0  0  0  0  0  0
  1  2  1  0  0  0  0
  2  3  1  0  0  0  0
  2  4  1  0  0  0  0
  4  5  1  0  0  0  0
  5  6  1  0  0  0  0
  5  7  1  0  0  0  0
  2  8  1  0  0  0  0
  1  9  1  0  0  0  0
  1 10  1  0  0  0  0
  1 11  1  0  0  0  0
  4 12  1  0  0  0  0
  4 13  1  0  0  0  0
  5 14  1  0  0  0  0
  6 15  1  0  0  0  0
  6 16  1  0  0  0  0
  6 17  1  0  0  0  0
  7 18  1  0  0  0  0
  7 19  1  0  0  0  0
  7 20  1  0  0  0  0
  8 21  1  0  0  0  0
M  END
