 xtb: 6.7.1 (edcfbbe)
          04112511133D

 21 21  0     0  0            999 V2000
   -1.9040    1.2266    1.1658 C   0  0  0  0  0  0  0  0  0  0  0  0
   -2.0149    1.0034   -0.3111 C   0  0  0  0  0  0  0  0  0  0  0  0
   -3.0476    1.0595   -0.9359 O   0  0  0  0  0  0  0  0  0  0  0  0
   -0.8847    0.7504   -0.9912 O   0  0  0  0  0  0  0  0  0  0  0  0
    0.3540    0.6303   -0.3723 C   0  0  0  0  0  0  0  0  0  0  0  0
    1.2000    1.7297   -0.3557 C   0  0  0  0  0  0  0  0  0  0  0  0
    2.4803    1.6103    0.1578 C   0  0  0  0  0  0  0  0  0  0  0  0
    2.9271    0.3905    0.6419 C   0  0  0  0  0  0  0  0  0  0  0  0
    2.0941   -0.7112    0.6130 C   0  0  0  0  0  0  0  0  0  0  0  0
    0.7961   -0.6059    0.1137 C   0  0  0  0  0  0  0  0  0  0  0  0
   -0.0952   -1.7893    0.1079 C   0  0  0  0  0  0  0  0  0  0  0  0
   -1.3096   -1.7361    0.1729 O   0  0  0  0  0  0  0  0  0  0  0  0
    0.5660   -2.9321    0.0502 O   0  0  0  0  0  0  0  0  0  0  0  0
   -1.7059    0.2668    1.6401 H   0  0  0  0  0  0  0  0  0  0  0  0
   -2.8467    1.6190    1.5330 H   0  0  0  0  0  0  0  0  0  0  0  0
   -1.0873    1.9074    1.3929 H   0  0  0  0  0  0  0  0  0  0  0  0
    0.8426    2.6656   -0.7554 H   0  0  0  0  0  0  0  0  0  0  0  0
    3.1280    2.4719    0.1730 H   0  0  0  0  0  0  0  0  0  0  0  0
    3.9257    0.2973    1.0364 H   0  0  0  0  0  0  0  0  0  0  0  0
    2.4295   -1.6676    0.9804 H   0  0  0  0  0  0  0  0  0  0  0  0
   -0.0254   -3.7100    0.0623 H   0  0  0  0  0  0  0  0  0  0  0  0
  1  2  1  0  0  0  0
  2  3  2  0  0  0  0
  2  4  1  0  0  0  0
  4  5  1  0  0  0  0
  5  6  4  0  0  0  0
  6  7  4  0  0  0  0
  7  8  4  0  0  0  0
  8  9  4  0  0  0  0
  5 10  4  0  0  0  0
  9 10  4  0  0  0  0
 10 11  1  0  0  0  0
 11 12  2  0  0  0  0
 11 13  1  0  0  0  0
  1 14  1  0  0  0  0
  1 15  1  0  0  0  0
  1 16  1  0  0  0  0
  6 17  1  0  0  0  0
  7 18  1  0  0  0  0
  8 19  1  0  0  0  0
  9 20  1  0  0  0  0
 13 21  1  0  0  0  0
M  END
