 xtb: 6.7.1 (edcfbbe)
          04112512193D

 17 16  0     0  0            999 V2000
   -2.8177    0.0408    0.5826 C   0  0  0  0  0  0  0  0  0  0  0  0
   -1.6816    0.7809   -0.1230 C   0  0  0  0  0  0  0  0  0  0  0  0
   -0.4955   -0.1294   -0.3165 C   0  0  0  0  0  0  0  0  0  0  0  0
   -0.5301   -1.2069   -0.8753 O   0  0  0  0  0  0  0  0  0  0  0  0
    0.6104    0.3856    0.2002 O   0  0  0  0  0  0  0  0  0  0  0  0
    1.8300   -0.3678    0.0816 C   0  0  0  0  0  0  0  0  0  0  0  0
    2.9892    0.5469    0.4269 C   0  0  0  0  0  0  0  0  0  0  0  0
   -3.0589   -0.8693    0.0387 H   0  0  0  0  0  0  0  0  0  0  0  0
   -2.5265   -0.2288    1.5946 H   0  0  0  0  0  0  0  0  0  0  0  0
   -3.7001    0.6715    0.6282 H   0  0  0  0  0  0  0  0  0  0  0  0
   -1.3626    1.6529    0.4456 H   0  0  0  0  0  0  0  0  0  0  0  0
   -2.0161    1.0963   -1.1128 H   0  0  0  0  0  0  0  0  0  0  0  0
    1.7715   -1.2205    0.7657 H   0  0  0  0  0  0  0  0  0  0  0  0
    1.9010   -0.7532   -0.9408 H   0  0  0  0  0  0  0  0  0  0  0  0
    2.8713    0.9291    1.4364 H   0  0  0  0  0  0  0  0  0  0  0  0
    3.9180   -0.0099    0.3598 H   0  0  0  0  0  0  0  0  0  0  0  0
    3.0226    1.3848   -0.2633 H   0  0  0  0  0  0  0  0  0  0  0  0
  1  2  1  0  0  0  0
  2  3  1  0  0  0  0
  3  4  2  0  0  0  0
  3  5  1  0  0  0  0
  5  6  1  0  0  0  0
  6  7  1  0  0  0  0
  1  8  1  0  0  0  0
  1  9  1  0  0  0  0
  1 10  1  0  0  0  0
  2 11  1  0  0  0  0
  2 12  1  0  0  0  0
  6 13  1  0  0  0  0
  6 14  1  0  0  0  0
  7 15  1  0  0  0  0
  7 16  1  0  0  0  0
  7 17  1  0  0  0  0
M  END
