 xtb: 6.7.1 (edcfbbe)
          04112511553D

 24 24  0     0  0            999 V2000
   -2.6346   -0.8531   -0.8989 C   0  0  0  0  0  0  0  0  0  0  0  0
   -2.2421   -0.1023    0.3700 C   0  0  0  0  0  0  0  0  0  0  0  0
   -0.9866    0.7665    0.1867 C   0  0  0  0  0  0  0  0  0  0  0  0
    0.2473    0.2327    0.9215 C   0  0  0  0  0  0  0  0  0  0  0  0
    0.7553   -1.1008    0.3694 C   0  0  0  0  0  0  0  0  0  0  0  0
    1.5503   -0.7243   -0.8849 C   0  0  0  0  0  0  0  0  0  0  0  0
    2.0523    0.7116   -0.6426 C   0  0  0  0  0  0  0  0  0  0  0  0
    1.4615    1.1428    0.7072 C   0  0  0  0  0  0  0  0  0  0  0  0
   -3.5151   -1.4667   -0.7203 H   0  0  0  0  0  0  0  0  0  0  0  0
   -2.8639   -0.1516   -1.6981 H   0  0  0  0  0  0  0  0  0  0  0  0
   -1.8292   -1.5014   -1.2352 H   0  0  0  0  0  0  0  0  0  0  0  0
   -3.0825    0.5274    0.6688 H   0  0  0  0  0  0  0  0  0  0  0  0
   -2.0757   -0.8190    1.1768 H   0  0  0  0  0  0  0  0  0  0  0  0
   -0.7612    0.8578   -0.8757 H   0  0  0  0  0  0  0  0  0  0  0  0
   -1.1849    1.7726    0.5630 H   0  0  0  0  0  0  0  0  0  0  0  0
    0.0036    0.1496    1.9852 H   0  0  0  0  0  0  0  0  0  0  0  0
    1.4192   -1.5587    1.1050 H   0  0  0  0  0  0  0  0  0  0  0  0
   -0.0460   -1.8046    0.1569 H   0  0  0  0  0  0  0  0  0  0  0  0
    2.3729   -1.4178   -1.0547 H   0  0  0  0  0  0  0  0  0  0  0  0
    0.9061   -0.7583   -1.7637 H   0  0  0  0  0  0  0  0  0  0  0  0
    3.1405    0.7572   -0.6238 H   0  0  0  0  0  0  0  0  0  0  0  0
    1.7111    1.3748   -1.4373 H   0  0  0  0  0  0  0  0  0  0  0  0
    2.1866    0.9687    1.5035 H   0  0  0  0  0  0  0  0  0  0  0  0
    1.1944    2.1987    0.7193 H   0  0  0  0  0  0  0  0  0  0  0  0
  1  2  1  0  0  0  0
  2  3  1  0  0  0  0
  3  4  1  0  0  0  0
  4  5  1  0  0  0  0
  5  6  1  0  0  0  0
  6  7  1  0  0  0  0
  4  8  1  0  0  0  0
  7  8  1  0  0  0  0
  1  9  1  0  0  0  0
  1 10  1  0  0  0  0
  1 11  1  0  0  0  0
  2 12  1  0  0  0  0
  2 13  1  0  0  0  0
  3 14  1  0  0  0  0
  3 15  1  0  0  0  0
  4 16  1  0  0  0  0
  5 17  1  0  0  0  0
  5 18  1  0  0  0  0
  6 19  1  0  0  0  0
  6 20  1  0  0  0  0
  7 21  1  0  0  0  0
  7 22  1  0  0  0  0
  8 23  1  0  0  0  0
  8 24  1  0  0  0  0
M  END
