 xtb: 6.7.1 (edcfbbe)
          04112511443D

 25 25  0     0  0            999 V2000
    3.2739   -0.9683    0.0531 C   0  0  0  0  0  0  0  0  0  0  0  0
    2.0184   -0.2525    0.4530 C   0  0  0  0  0  0  0  0  0  0  0  0
    1.5242   -0.3470    1.6774 C   0  0  0  0  0  0  0  0  0  0  0  0
    1.3837    0.5642   -0.6502 C   0  0  0  0  0  0  0  0  0  0  0  0
    2.1952    0.9452   -1.2791 H   0  0  0  0  0  0  0  0  0  0  0  0
    0.4783   -0.3139   -1.5290 C   0  0  0  0  0  0  0  0  0  0  0  0
   -0.6968   -0.8579   -0.7257 C   0  0  0  0  0  0  0  0  0  0  0  0
   -1.4114    0.2472   -0.0054 C   0  0  0  0  0  0  0  0  0  0  0  0
   -0.8134    1.4196    0.2630 C   0  0  0  0  0  0  0  0  0  0  0  0
    0.5737    1.7606   -0.1387 C   0  0  0  0  0  0  0  0  0  0  0  0
   -2.7782    0.0175    0.4145 C   0  0  0  0  0  0  0  0  0  0  0  0
   -3.4225   -0.9979    0.2157 O   0  0  0  0  0  0  0  0  0  0  0  0
    3.6294   -1.6103    0.8541 H   0  0  0  0  0  0  0  0  0  0  0  0
    3.1011   -1.5768   -0.8327 H   0  0  0  0  0  0  0  0  0  0  0  0
    4.0542   -0.2472   -0.1877 H   0  0  0  0  0  0  0  0  0  0  0  0
    0.6261    0.1592    1.9863 H   0  0  0  0  0  0  0  0  0  0  0  0
    2.0032   -0.9519    2.4296 H   0  0  0  0  0  0  0  0  0  0  0  0
    0.1000    0.2917   -2.3544 H   0  0  0  0  0  0  0  0  0  0  0  0
    1.0479   -1.1421   -1.9509 H   0  0  0  0  0  0  0  0  0  0  0  0
   -1.4076   -1.3783   -1.3711 H   0  0  0  0  0  0  0  0  0  0  0  0
   -0.3422   -1.5827    0.0133 H   0  0  0  0  0  0  0  0  0  0  0  0
   -1.3661    2.1931    0.7807 H   0  0  0  0  0  0  0  0  0  0  0  0
    0.5059    2.5152   -0.9291 H   0  0  0  0  0  0  0  0  0  0  0  0
    1.0902    2.2351    0.6987 H   0  0  0  0  0  0  0  0  0  0  0  0
   -3.2430    0.8627    0.9582 H   0  0  0  0  0  0  0  0  0  0  0  0
  1  2  1  0  0  0  0
  2  3  2  0  0  0  0
  2  4  1  0  0  0  0
  4  5  1  0  0  0  0
  4  6  1  0  0  0  0
  6  7  1  0  0  0  0
  7  8  1  0  0  0  0
  8  9  2  0  0  0  0
  4 10  1  0  0  0  0
  9 10  1  0  0  0  0
  8 11  1  0  0  0  0
 11 12  2  0  0  0  0
  1 13  1  0  0  0  0
  1 14  1  0  0  0  0
  1 15  1  0  0  0  0
  3 16  1  0  0  0  0
  3 17  1  0  0  0  0
  6 18  1  0  0  0  0
  6 19  1  0  0  0  0
  7 20  1  0  0  0  0
  7 21  1  0  0  0  0
  9 22  1  0  0  0  0
 10 23  1  0  0  0  0
 10 24  1  0  0  0  0
 11 25  1  0  0  0  0
M  END
