 xtb: 6.7.1 (edcfbbe)
          04112510353D

 18 17  0     0  0            999 V2000
   -2.7883    0.0293   -0.0069 C   0  0  0  0  0  0  0  0  0  0  0  0
   -1.3761    0.5845   -0.1570 C   0  0  0  0  0  0  0  0  0  0  0  0
   -0.3292   -0.4869    0.1334 C   0  0  0  0  0  0  0  0  0  0  0  0
    1.1076   -0.0546    0.0141 C   0  0  0  0  0  0  0  0  0  0  0  0
    1.5021    1.1643   -0.3166 C   0  0  0  0  0  0  0  0  0  0  0  0
    2.0941   -1.1473    0.3088 C   0  0  0  0  0  0  0  0  0  0  0  0
   -3.5257    0.8007   -0.2148 H   0  0  0  0  0  0  0  0  0  0  0  0
   -2.9496   -0.3356    1.0051 H   0  0  0  0  0  0  0  0  0  0  0  0
   -2.9499   -0.7950   -0.6981 H   0  0  0  0  0  0  0  0  0  0  0  0
   -1.2422    0.9587   -1.1738 H   0  0  0  0  0  0  0  0  0  0  0  0
   -1.2425    1.4207    0.5321 H   0  0  0  0  0  0  0  0  0  0  0  0
   -0.4855   -0.8689    1.1473 H   0  0  0  0  0  0  0  0  0  0  0  0
   -0.4874   -1.3298   -0.5471 H   0  0  0  0  0  0  0  0  0  0  0  0
    2.5481    1.4135   -0.3857 H   0  0  0  0  0  0  0  0  0  0  0  0
    0.8162    1.9636   -0.5321 H   0  0  0  0  0  0  0  0  0  0  0  0
    1.9477   -1.9816   -0.3757 H   0  0  0  0  0  0  0  0  0  0  0  0
    3.1150   -0.7893    0.2099 H   0  0  0  0  0  0  0  0  0  0  0  0
    1.9506   -1.5213    1.3215 H   0  0  0  0  0  0  0  0  0  0  0  0
  1  2  1  0  0  0  0
  2  3  1  0  0  0  0
  3  4  1  0  0  0  0
  4  5  2  0  0  0  0
  4  6  1  0  0  0  0
  1  7  1  0  0  0  0
  1  8  1  0  0  0  0
  1  9  1  0  0  0  0
  2 10  1  0  0  0  0
  2 11  1  0  0  0  0
  3 12  1  0  0  0  0
  3 13  1  0  0  0  0
  5 14  1  0  0  0  0
  5 15  1  0  0  0  0
  6 16  1  0  0  0  0
  6 17  1  0  0  0  0
  6 18  1  0  0  0  0
M  END
