 xtb: 6.7.1 (edcfbbe)
          04112511493D

 21 20  0     0  0            999 V2000
    1.6043    0.3647    1.3435 C   0  0  0  0  0  0  0  0  0  0  0  0
    1.1937    0.4399   -0.1233 C   0  0  0  0  0  0  0  0  0  0  0  0
    0.9189    1.4785   -0.3653 H   0  0  0  0  0  0  0  0  0  0  0  0
    0.0280   -0.4993   -0.4616 C   0  0  0  0  0  0  0  0  0  0  0  0
   -1.2728   -0.2488    0.3091 C   0  0  0  0  0  0  0  0  0  0  0  0
   -1.8444    1.1392    0.0276 C   0  0  0  0  0  0  0  0  0  0  0  0
   -2.2968   -1.3189   -0.0705 C   0  0  0  0  0  0  0  0  0  0  0  0
    2.3427    0.0896   -0.8861 O   0  0  0  0  0  0  0  0  0  0  0  0
    1.7862   -0.6693    1.6242 H   0  0  0  0  0  0  0  0  0  0  0  0
    2.5244    0.9261    1.4833 H   0  0  0  0  0  0  0  0  0  0  0  0
    0.8326    0.7849    1.9797 H   0  0  0  0  0  0  0  0  0  0  0  0
   -0.1837   -0.4164   -1.5318 H   0  0  0  0  0  0  0  0  0  0  0  0
    0.3646   -1.5213   -0.2689 H   0  0  0  0  0  0  0  0  0  0  0  0
   -1.0718   -0.3357    1.3810 H   0  0  0  0  0  0  0  0  0  0  0  0
   -2.8011    1.2584    0.5306 H   0  0  0  0  0  0  0  0  0  0  0  0
   -2.0002    1.2758   -1.0404 H   0  0  0  0  0  0  0  0  0  0  0  0
   -1.1766    1.9192    0.3831 H   0  0  0  0  0  0  0  0  0  0  0  0
   -2.5308   -1.2611   -1.1313 H   0  0  0  0  0  0  0  0  0  0  0  0
   -1.9114   -2.3131    0.1428 H   0  0  0  0  0  0  0  0  0  0  0  0
   -3.2172   -1.1803    0.4914 H   0  0  0  0  0  0  0  0  0  0  0  0
    2.1185    0.1007   -1.8260 H   0  0  0  0  0  0  0  0  0  0  0  0
  1  2  1  0  0  0  0
  2  3  1  0  0  0  0
  2  4  1  0  0  0  0
  4  5  1  0  0  0  0
  5  6  1  0  0  0  0
  5  7  1  0  0  0  0
  2  8  1  0  0  0  0
  1  9  1  0  0  0  0
  1 10  1  0  0  0  0
  1 11  1  0  0  0  0
  4 12  1  0  0  0  0
  4 13  1  0  0  0  0
  5 14  1  0  0  0  0
  6 15  1  0  0  0  0
  6 16  1  0  0  0  0
  6 17  1  0  0  0  0
  7 18  1  0  0  0  0
  7 19  1  0  0  0  0
  7 20  1  0  0  0  0
  8 21  1  0  0  0  0
M  END
