 xtb: 6.7.1 (edcfbbe)
          04112511103D

 18 17  0     0  0            999 V2000
    2.8305   -0.3540    0.1384 C   0  0  0  0  0  0  0  0  0  0  0  0
    1.4205   -0.5602   -0.4038 C   0  0  0  0  0  0  0  0  0  0  0  0
    0.4134    0.3396    0.3084 C   0  0  0  0  0  0  0  0  0  0  0  0
   -0.9946    0.2790   -0.2972 C   0  0  0  0  0  0  0  0  0  0  0  0
   -0.9307    0.5043   -1.3755 H   0  0  0  0  0  0  0  0  0  0  0  0
   -1.6510   -1.0859   -0.1177 C   0  0  0  0  0  0  0  0  0  0  0  0
   -1.8533    1.2283    0.3201 O   0  0  0  0  0  0  0  0  0  0  0  0
    2.8642   -0.5756    1.2025 H   0  0  0  0  0  0  0  0  0  0  0  0
    3.1507    0.6752   -0.0074 H   0  0  0  0  0  0  0  0  0  0  0  0
    3.5335   -1.0078   -0.3715 H   0  0  0  0  0  0  0  0  0  0  0  0
    1.4058   -0.3392   -1.4736 H   0  0  0  0  0  0  0  0  0  0  0  0
    1.1377   -1.6054   -0.2744 H   0  0  0  0  0  0  0  0  0  0  0  0
    0.3513    0.0659    1.3640 H   0  0  0  0  0  0  0  0  0  0  0  0
    0.7695    1.3724    0.2538 H   0  0  0  0  0  0  0  0  0  0  0  0
   -1.1246   -1.8410   -0.6914 H   0  0  0  0  0  0  0  0  0  0  0  0
   -1.6507   -1.3591    0.9341 H   0  0  0  0  0  0  0  0  0  0  0  0
   -2.6814   -1.0333   -0.4591 H   0  0  0  0  0  0  0  0  0  0  0  0
   -1.4635    2.1098    0.2483 H   0  0  0  0  0  0  0  0  0  0  0  0
  1  2  1  0  0  0  0
  2  3  1  0  0  0  0
  3  4  1  0  0  0  0
  4  5  1  0  0  0  0
  4  6  1  0  0  0  0
  4  7  1  0  0  0  0
  1  8  1  0  0  0  0
  1  9  1  0  0  0  0
  1 10  1  0  0  0  0
  2 11  1  0  0  0  0
  2 12  1  0  0  0  0
  3 13  1  0  0  0  0
  3 14  1  0  0  0  0
  6 15  1  0  0  0  0
  6 16  1  0  0  0  0
  6 17  1  0  0  0  0
  7 18  1  0  0  0  0
M  END
