 xtb: 6.7.1 (edcfbbe)
          04112511143D

 17 16  0     0  0            999 V2000
    1.9165    0.7175   -0.7366 C   0  0  0  0  0  0  0  0  0  0  0  0
    1.3954    0.0060    0.5103 C   0  0  0  0  0  0  0  0  0  0  0  0
    1.4229   -1.5097    0.3254 C   0  0  0  0  0  0  0  0  0  0  0  0
   -0.0104    0.4913    0.8861 C   0  0  0  0  0  0  0  0  0  0  0  0
   -1.1083    0.1659   -0.0910 C   0  0  0  0  0  0  0  0  0  0  0  0
   -0.9866   -0.2233   -1.2318 O   0  0  0  0  0  0  0  0  0  0  0  0
   -2.3030    0.3752    0.4524 O   0  0  0  0  0  0  0  0  0  0  0  0
    1.9376    1.7942   -0.5845 H   0  0  0  0  0  0  0  0  0  0  0  0
    1.2778    0.4985   -1.5882 H   0  0  0  0  0  0  0  0  0  0  0  0
    2.9246    0.3824   -0.9665 H   0  0  0  0  0  0  0  0  0  0  0  0
    2.0514    0.2613    1.3503 H   0  0  0  0  0  0  0  0  0  0  0  0
    2.4379   -1.8471    0.1334 H   0  0  0  0  0  0  0  0  0  0  0  0
    1.0546   -2.0130    1.2165 H   0  0  0  0  0  0  0  0  0  0  0  0
    0.8012   -1.7967   -0.5192 H   0  0  0  0  0  0  0  0  0  0  0  0
   -0.0093    1.5793    0.9921 H   0  0  0  0  0  0  0  0  0  0  0  0
   -0.3127    0.0772    1.8499 H   0  0  0  0  0  0  0  0  0  0  0  0
   -3.0345    0.1893   -0.1673 H   0  0  0  0  0  0  0  0  0  0  0  0
  1  2  1  0  0  0  0
  2  3  1  0  0  0  0
  2  4  1  0  0  0  0
  4  5  1  0  0  0  0
  5  6  2  0  0  0  0
  5  7  1  0  0  0  0
  1  8  1  0  0  0  0
  1  9  1  0  0  0  0
  1 10  1  0  0  0  0
  2 11  1  0  0  0  0
  3 12  1  0  0  0  0
  3 13  1  0  0  0  0
  3 14  1  0  0  0  0
  4 15  1  0  0  0  0
  4 16  1  0  0  0  0
  7 17  1  0  0  0  0
M  END
