 xtb: 6.7.1 (edcfbbe)
          04112510353D

 18 17  0     0  0            999 V2000
   -1.9975    0.4793   -0.7269 C   0  0  0  0  0  0  0  0  0  0  0  0
   -1.5033   -0.5355    0.2959 C   0  0  0  0  0  0  0  0  0  0  0  0
   -0.2413   -0.0551    1.0261 C   0  0  0  0  0  0  0  0  0  0  0  0
    0.9392    0.0910    0.1052 C   0  0  0  0  0  0  0  0  0  0  0  0
    1.3450    1.2731   -0.3316 C   0  0  0  0  0  0  0  0  0  0  0  0
    1.6241   -1.1827   -0.2865 C   0  0  0  0  0  0  0  0  0  0  0  0
   -1.2314    0.6691   -1.4751 H   0  0  0  0  0  0  0  0  0  0  0  0
   -2.2402    1.4214   -0.2403 H   0  0  0  0  0  0  0  0  0  0  0  0
   -2.8893    0.1115   -1.2287 H   0  0  0  0  0  0  0  0  0  0  0  0
   -2.2865   -0.7126    1.0361 H   0  0  0  0  0  0  0  0  0  0  0  0
   -1.2997   -1.4847   -0.2029 H   0  0  0  0  0  0  0  0  0  0  0  0
   -0.4566    0.9048    1.4993 H   0  0  0  0  0  0  0  0  0  0  0  0
    0.0035   -0.7756    1.8100 H   0  0  0  0  0  0  0  0  0  0  0  0
    2.1851    1.3778   -0.9980 H   0  0  0  0  0  0  0  0  0  0  0  0
    0.8540    2.1868   -0.0412 H   0  0  0  0  0  0  0  0  0  0  0  0
    0.9209   -1.8629   -0.7638 H   0  0  0  0  0  0  0  0  0  0  0  0
    2.4435   -0.9898   -0.9734 H   0  0  0  0  0  0  0  0  0  0  0  0
    2.0179   -1.6812    0.5984 H   0  0  0  0  0  0  0  0  0  0  0  0
  1  2  1  0  0  0  0
  2  3  1  0  0  0  0
  3  4  1  0  0  0  0
  4  5  2  0  0  0  0
  4  6  1  0  0  0  0
  1  7  1  0  0  0  0
  1  8  1  0  0  0  0
  1  9  1  0  0  0  0
  2 10  1  0  0  0  0
  2 11  1  0  0  0  0
  3 12  1  0  0  0  0
  3 13  1  0  0  0  0
  5 14  1  0  0  0  0
  5 15  1  0  0  0  0
  6 16  1  0  0  0  0
  6 17  1  0  0  0  0
  6 18  1  0  0  0  0
M  END
