 xtb: 6.7.1 (edcfbbe)
          04112511493D

 21 20  0     0  0            999 V2000
    2.4444    0.6366   -0.5272 C   0  0  0  0  0  0  0  0  0  0  0  0
    1.0812   -0.0480   -0.3987 C   0  0  0  0  0  0  0  0  0  0  0  0
    0.7619   -0.3831   -1.3978 H   0  0  0  0  0  0  0  0  0  0  0  0
    0.0507    0.9425    0.1564 C   0  0  0  0  0  0  0  0  0  0  0  0
   -1.4163    0.4821    0.1817 C   0  0  0  0  0  0  0  0  0  0  0  0
   -1.8840   -0.0505   -1.1717 C   0  0  0  0  0  0  0  0  0  0  0  0
   -1.6745   -0.5480    1.2786 C   0  0  0  0  0  0  0  0  0  0  0  0
    1.1627   -1.1721    0.4635 O   0  0  0  0  0  0  0  0  0  0  0  0
    3.1807   -0.0522   -0.9361 H   0  0  0  0  0  0  0  0  0  0  0  0
    2.3725    1.4953   -1.1879 H   0  0  0  0  0  0  0  0  0  0  0  0
    2.7834    0.9706    0.4508 H   0  0  0  0  0  0  0  0  0  0  0  0
    0.3500    1.1981    1.1749 H   0  0  0  0  0  0  0  0  0  0  0  0
    0.1154    1.8457   -0.4534 H   0  0  0  0  0  0  0  0  0  0  0  0
   -2.0107    1.3749    0.4140 H   0  0  0  0  0  0  0  0  0  0  0  0
   -2.9639   -0.1789   -1.1671 H   0  0  0  0  0  0  0  0  0  0  0  0
   -1.4319   -1.0168   -1.3800 H   0  0  0  0  0  0  0  0  0  0  0  0
   -1.6232    0.6409   -1.9698 H   0  0  0  0  0  0  0  0  0  0  0  0
   -2.7200   -0.8483    1.2760 H   0  0  0  0  0  0  0  0  0  0  0  0
   -1.0550   -1.4266    1.1252 H   0  0  0  0  0  0  0  0  0  0  0  0
   -1.4369   -0.1320    2.2550 H   0  0  0  0  0  0  0  0  0  0  0  0
    1.8860   -1.7415    0.1698 H   0  0  0  0  0  0  0  0  0  0  0  0
  1  2  1  0  0  0  0
  2  3  1  0  0  0  0
  2  4  1  0  0  0  0
  4  5  1  0  0  0  0
  5  6  1  0  0  0  0
  5  7  1  0  0  0  0
  2  8  1  0  0  0  0
  1  9  1  0  0  0  0
  1 10  1  0  0  0  0
  1 11  1  0  0  0  0
  4 12  1  0  0  0  0
  4 13  1  0  0  0  0
  5 14  1  0  0  0  0
  6 15  1  0  0  0  0
  6 16  1  0  0  0  0
  6 17  1  0  0  0  0
  7 18  1  0  0  0  0
  7 19  1  0  0  0  0
  7 20  1  0  0  0  0
  8 21  1  0  0  0  0
M  END
