 xtb: 6.7.1 (edcfbbe)
          04112512013D

 22 22  0     0  0            999 V2000
    5.3328   -0.3191    0.6976 C   0  0  0  0  0  0  0  0  0  0  0  0
    4.4808    0.3245   -0.3969 C   0  0  0  0  0  0  0  0  0  0  0  0
    3.0481   -0.1602   -0.2979 C   0  0  0  0  0  0  0  0  0  0  0  0
    2.7670   -1.3487   -0.3036 O   0  0  0  0  0  0  0  0  0  0  0  0
    2.1283    0.8389   -0.2051 N   0  0  0  0  0  0  0  0  0  0  0  0
    0.7416    0.7523   -0.1123 C   0  0  0  0  0  0  0  0  0  0  0  0
    0.0121    1.9417   -0.0438 C   0  0  0  0  0  0  0  0  0  0  0  0
   -1.3639    1.9181    0.0486 C   0  0  0  0  0  0  0  0  0  0  0  0
   -2.0388    0.7066    0.0747 C   0  0  0  0  0  0  0  0  0  0  0  0
   -1.3182   -0.4787    0.0078 C   0  0  0  0  0  0  0  0  0  0  0  0
    0.0621   -0.4632   -0.0849 C   0  0  0  0  0  0  0  0  0  0  0  0
   -2.1434   -2.0034    0.0394 Cl  0  0  0  0  0  0  0  0  0  0  0  0
   -3.7681    0.6768    0.1897 Cl  0  0  0  0  0  0  0  0  0  0  0  0
    5.2237   -1.4003    0.6606 H   0  0  0  0  0  0  0  0  0  0  0  0
    5.0157    0.0235    1.6795 H   0  0  0  0  0  0  0  0  0  0  0  0
    6.3796   -0.0655    0.5588 H   0  0  0  0  0  0  0  0  0  0  0  0
    4.8597    0.0092   -1.3711 H   0  0  0  0  0  0  0  0  0  0  0  0
    4.5392    1.4093   -0.3314 H   0  0  0  0  0  0  0  0  0  0  0  0
    2.4827    1.7874   -0.2096 H   0  0  0  0  0  0  0  0  0  0  0  0
    0.5226    2.8910   -0.0632 H   0  0  0  0  0  0  0  0  0  0  0  0
   -1.9268    2.8350    0.1010 H   0  0  0  0  0  0  0  0  0  0  0  0
    0.6082   -1.3901   -0.1362 H   0  0  0  0  0  0  0  0  0  0  0  0
  1  2  1  0  0  0  0
  2  3  1  0  0  0  0
  3  4  2  0  0  0  0
  3  5  4  0  0  0  0
  5  6  1  0  0  0  0
  6  7  4  0  0  0  0
  7  8  4  0  0  0  0
  8  9  4  0  0  0  0
  9 10  4  0  0  0  0
  6 11  4  0  0  0  0
 10 11  4  0  0  0  0
 10 12  1  0  0  0  0
  9 13  1  0  0  0  0
  1 14  1  0  0  0  0
  1 15  1  0  0  0  0
  1 16  1  0  0  0  0
  2 17  1  0  0  0  0
  2 18  1  0  0  0  0
  5 19  1  0  0  0  0
  7 20  1  0  0  0  0
  8 21  1  0  0  0  0
 11 22  1  0  0  0  0
M  END
