 xtb: 6.7.1 (edcfbbe)
          04112511193D

 14 13  0     0  0            999 V2000
   -1.3564   -0.4229   -0.3784 C   0  0  0  0  0  0  0  0  0  0  0  0
    0.0044   -0.0764    0.2521 C   0  0  0  0  0  0  0  0  0  0  0  0
    1.1430   -0.7517   -0.5191 C   0  0  0  0  0  0  0  0  0  0  0  0
    2.3843   -0.5764    0.1166 O   0  0  0  0  0  0  0  0  0  0  0  0
    0.2514    1.3196    0.2137 O   0  0  0  0  0  0  0  0  0  0  0  0
   -2.4222    0.2571    0.2454 O   0  0  0  0  0  0  0  0  0  0  0  0
   -1.5506   -1.4881   -0.2436 H   0  0  0  0  0  0  0  0  0  0  0  0
   -1.3266   -0.1989   -1.4502 H   0  0  0  0  0  0  0  0  0  0  0  0
    0.0210   -0.4281    1.2923 H   0  0  0  0  0  0  0  0  0  0  0  0
    1.1718   -0.3394   -1.5360 H   0  0  0  0  0  0  0  0  0  0  0  0
    0.9723   -1.8276   -0.5713 H   0  0  0  0  0  0  0  0  0  0  0  0
    2.5295    0.3751    0.2301 H   0  0  0  0  0  0  0  0  0  0  0  0
   -0.2899    1.7573    0.8844 H   0  0  0  0  0  0  0  0  0  0  0  0
   -2.4270    1.1774   -0.0541 H   0  0  0  0  0  0  0  0  0  0  0  0
  1  2  1  0  0  0  0
  2  3  1  0  0  0  0
  3  4  1  0  0  0  0
  2  5  1  0  0  0  0
  1  6  1  0  0  0  0
  1  7  1  0  0  0  0
  1  8  1  0  0  0  0
  2  9  1  0  0  0  0
  3 10  1  0  0  0  0
  3 11  1  0  0  0  0
  4 12  1  0  0  0  0
  5 13  1  0  0  0  0
  6 14  1  0  0  0  0
M  END
