 xtb: 6.7.1 (edcfbbe)
          04112511193D

 14 13  0     0  0            999 V2000
   -1.1042   -0.5403   -0.2157 C   0  0  0  0  0  0  0  0  0  0  0  0
   -0.0018    0.1873    0.5736 C   0  0  0  0  0  0  0  0  0  0  0  0
    1.3064   -0.6180    0.6253 C   0  0  0  0  0  0  0  0  0  0  0  0
    1.8992   -0.7307   -0.6506 O   0  0  0  0  0  0  0  0  0  0  0  0
    0.2239    1.4643    0.0115 O   0  0  0  0  0  0  0  0  0  0  0  0
   -2.3295    0.1508   -0.1411 O   0  0  0  0  0  0  0  0  0  0  0  0
   -1.2852   -1.5299    0.2079 H   0  0  0  0  0  0  0  0  0  0  0  0
   -0.8025   -0.6409   -1.2677 H   0  0  0  0  0  0  0  0  0  0  0  0
   -0.3613    0.3619    1.5934 H   0  0  0  0  0  0  0  0  0  0  0  0
    1.1253   -1.5973    1.0764 H   0  0  0  0  0  0  0  0  0  0  0  0
    2.0275   -0.0723    1.2390 H   0  0  0  0  0  0  0  0  0  0  0  0
    1.4713   -1.4363   -1.1529 H   0  0  0  0  0  0  0  0  0  0  0  0
    0.8650    1.3603   -0.7102 H   0  0  0  0  0  0  0  0  0  0  0  0
   -2.1529    1.0877   -0.3179 H   0  0  0  0  0  0  0  0  0  0  0  0
  1  2  1  0  0  0  0
  2  3  1  0  0  0  0
  3  4  1  0  0  0  0
  2  5  1  0  0  0  0
  1  6  1  0  0  0  0
  1  7  1  0  0  0  0
  1  8  1  0  0  0  0
  2  9  1  0  0  0  0
  3 10  1  0  0  0  0
  3 11  1  0  0  0  0
  4 12  1  0  0  0  0
  5 13  1  0  0  0  0
  6 14  1  0  0  0  0
M  END
