 xtb: 6.7.1 (edcfbbe)
          04112511203D

 21 20  0     0  0            999 V2000
   -2.2758    0.4625    0.7999 C   0  0  0  0  0  0  0  0  0  0  0  0
   -1.7106    0.4749   -0.6157 C   0  0  0  0  0  0  0  0  0  0  0  0
   -0.5457   -0.4975   -0.8170 C   0  0  0  0  0  0  0  0  0  0  0  0
    0.7665   -0.1766   -0.0671 C   0  0  0  0  0  0  0  0  0  0  0  0
    1.2075    1.2729   -0.2783 C   0  0  0  0  0  0  0  0  0  0  0  0
    1.8604   -1.1247   -0.5821 C   0  0  0  0  0  0  0  0  0  0  0  0
    0.6213   -0.3441    1.3406 O   0  0  0  0  0  0  0  0  0  0  0  0
   -1.5055    0.7205    1.5214 H   0  0  0  0  0  0  0  0  0  0  0  0
   -2.6619   -0.5243    1.0467 H   0  0  0  0  0  0  0  0  0  0  0  0
   -3.0890    1.1796    0.8874 H   0  0  0  0  0  0  0  0  0  0  0  0
   -2.5032    0.1940   -1.3144 H   0  0  0  0  0  0  0  0  0  0  0  0
   -1.3941    1.4858   -0.8739 H   0  0  0  0  0  0  0  0  0  0  0  0
   -0.8721   -1.4981   -0.5195 H   0  0  0  0  0  0  0  0  0  0  0  0
   -0.3091   -0.5318   -1.8823 H   0  0  0  0  0  0  0  0  0  0  0  0
    0.5396    1.9456    0.2513 H   0  0  0  0  0  0  0  0  0  0  0  0
    1.2086    1.5179   -1.3358 H   0  0  0  0  0  0  0  0  0  0  0  0
    2.2084    1.4087    0.1228 H   0  0  0  0  0  0  0  0  0  0  0  0
    2.7594   -1.0060    0.0185 H   0  0  0  0  0  0  0  0  0  0  0  0
    2.0996   -0.8992   -1.6170 H   0  0  0  0  0  0  0  0  0  0  0  0
    1.5323   -2.1604   -0.5188 H   0  0  0  0  0  0  0  0  0  0  0  0
    0.4384   -1.2743    1.5271 H   0  0  0  0  0  0  0  0  0  0  0  0
  1  2  1  0  0  0  0
  2  3  1  0  0  0  0
  3  4  1  0  0  0  0
  4  5  1  0  0  0  0
  4  6  1  0  0  0  0
  4  7  1  0  0  0  0
  1  8  1  0  0  0  0
  1  9  1  0  0  0  0
  1 10  1  0  0  0  0
  2 11  1  0  0  0  0
  2 12  1  0  0  0  0
  3 13  1  0  0  0  0
  3 14  1  0  0  0  0
  5 15  1  0  0  0  0
  5 16  1  0  0  0  0
  5 17  1  0  0  0  0
  6 18  1  0  0  0  0
  6 19  1  0  0  0  0
  6 20  1  0  0  0  0
  7 21  1  0  0  0  0
M  END
