 xtb: 6.7.1 (edcfbbe)
          04112511043D

 22 22  0     0  0            999 V2000
   -2.1956   -0.7762    1.3061 C   0  0  0  0  0  0  0  0  0  0  0  0
   -2.2905   -0.1156   -0.0667 C   0  0  0  0  0  0  0  0  0  0  0  0
   -2.2594    1.4042    0.0621 C   0  0  0  0  0  0  0  0  0  0  0  0
   -1.1828   -0.6157   -1.0189 C   0  0  0  0  0  0  0  0  0  0  0  0
    0.1930   -0.2934   -0.5321 C   0  0  0  0  0  0  0  0  0  0  0  0
    0.9024   -1.1460    0.3186 C   0  0  0  0  0  0  0  0  0  0  0  0
    2.1051   -0.8460    0.7805 N   0  0  0  0  0  0  0  0  0  0  0  0
    2.6289    0.3110    0.3929 C   0  0  0  0  0  0  0  0  0  0  0  0
    1.9469    1.1534   -0.4724 C   0  0  0  0  0  0  0  0  0  0  0  0
    0.7407    0.8528   -0.9299 N   0  0  0  0  0  0  0  0  0  0  0  0
   -2.2160   -1.8597    1.2164 H   0  0  0  0  0  0  0  0  0  0  0  0
   -3.0340   -0.4689    1.9263 H   0  0  0  0  0  0  0  0  0  0  0  0
   -1.2763   -0.4870    1.8118 H   0  0  0  0  0  0  0  0  0  0  0  0
   -3.2449   -0.4036   -0.5201 H   0  0  0  0  0  0  0  0  0  0  0  0
   -3.0797    1.7460    0.6886 H   0  0  0  0  0  0  0  0  0  0  0  0
   -1.3247    1.7329    0.5113 H   0  0  0  0  0  0  0  0  0  0  0  0
   -2.3489    1.8734   -0.9139 H   0  0  0  0  0  0  0  0  0  0  0  0
   -1.3218   -0.1380   -1.9889 H   0  0  0  0  0  0  0  0  0  0  0  0
   -1.2784   -1.6965   -1.1323 H   0  0  0  0  0  0  0  0  0  0  0  0
    0.4976   -2.0974    0.6339 H   0  0  0  0  0  0  0  0  0  0  0  0
    3.6082    0.5496    0.7808 H   0  0  0  0  0  0  0  0  0  0  0  0
    2.3677    2.0887   -0.8136 H   0  0  0  0  0  0  0  0  0  0  0  0
  1  2  1  0  0  0  0
  2  3  1  0  0  0  0
  2  4  1  0  0  0  0
  4  5  1  0  0  0  0
  5  6  4  0  0  0  0
  6  7  4  0  0  0  0
  7  8  4  0  0  0  0
  8  9  4  0  0  0  0
  5 10  4  0  0  0  0
  9 10  4  0  0  0  0
  1 11  1  0  0  0  0
  1 12  1  0  0  0  0
  1 13  1  0  0  0  0
  2 14  1  0  0  0  0
  3 15  1  0  0  0  0
  3 16  1  0  0  0  0
  3 17  1  0  0  0  0
  4 18  1  0  0  0  0
  4 19  1  0  0  0  0
  6 20  1  0  0  0  0
  8 21  1  0  0  0  0
  9 22  1  0  0  0  0
M  END
