 xtb: 6.7.1 (edcfbbe)
          04112511443D

 25 25  0     0  0            999 V2000
    3.0325   -0.8647    1.0987 C   0  0  0  0  0  0  0  0  0  0  0  0
    2.5886    0.1829    0.1225 C   0  0  0  0  0  0  0  0  0  0  0  0
    3.4594    0.9615   -0.5019 C   0  0  0  0  0  0  0  0  0  0  0  0
    1.1081    0.3134   -0.1414 C   0  0  0  0  0  0  0  0  0  0  0  0
    0.9527    1.2088   -0.7523 H   0  0  0  0  0  0  0  0  0  0  0  0
    0.5641   -0.8855   -0.9302 C   0  0  0  0  0  0  0  0  0  0  0  0
   -0.8572   -0.5895   -1.4012 C   0  0  0  0  0  0  0  0  0  0  0  0
   -1.7041   -0.0760   -0.2703 C   0  0  0  0  0  0  0  0  0  0  0  0
   -1.1707    0.3929    0.8704 C   0  0  0  0  0  0  0  0  0  0  0  0
    0.2854    0.4656    1.1422 C   0  0  0  0  0  0  0  0  0  0  0  0
   -3.1464   -0.0915   -0.4381 C   0  0  0  0  0  0  0  0  0  0  0  0
   -3.9662    0.2985    0.3754 O   0  0  0  0  0  0  0  0  0  0  0  0
    2.5170   -1.8055    0.9220 H   0  0  0  0  0  0  0  0  0  0  0  0
    4.1027   -1.0316    1.0145 H   0  0  0  0  0  0  0  0  0  0  0  0
    2.8209   -0.5458    2.1184 H   0  0  0  0  0  0  0  0  0  0  0  0
    3.1497    1.7236   -1.1971 H   0  0  0  0  0  0  0  0  0  0  0  0
    4.5208    0.8700   -0.3441 H   0  0  0  0  0  0  0  0  0  0  0  0
    1.2057   -1.0892   -1.7884 H   0  0  0  0  0  0  0  0  0  0  0  0
    0.5537   -1.7704   -0.2928 H   0  0  0  0  0  0  0  0  0  0  0  0
   -0.8372    0.1606   -2.1971 H   0  0  0  0  0  0  0  0  0  0  0  0
   -1.3122   -1.4912   -1.8164 H   0  0  0  0  0  0  0  0  0  0  0  0
   -1.8427    0.7296    1.6493 H   0  0  0  0  0  0  0  0  0  0  0  0
    0.5197    1.4101    1.6379 H   0  0  0  0  0  0  0  0  0  0  0  0
    0.5313   -0.3332    1.8478 H   0  0  0  0  0  0  0  0  0  0  0  0
   -3.4930   -0.4993   -1.4064 H   0  0  0  0  0  0  0  0  0  0  0  0
  1  2  1  0  0  0  0
  2  3  2  0  0  0  0
  2  4  1  0  0  0  0
  4  5  1  0  0  0  0
  4  6  1  0  0  0  0
  6  7  1  0  0  0  0
  7  8  1  0  0  0  0
  8  9  2  0  0  0  0
  4 10  1  0  0  0  0
  9 10  1  0  0  0  0
  8 11  1  0  0  0  0
 11 12  2  0  0  0  0
  1 13  1  0  0  0  0
  1 14  1  0  0  0  0
  1 15  1  0  0  0  0
  3 16  1  0  0  0  0
  3 17  1  0  0  0  0
  6 18  1  0  0  0  0
  6 19  1  0  0  0  0
  7 20  1  0  0  0  0
  7 21  1  0  0  0  0
  9 22  1  0  0  0  0
 10 23  1  0  0  0  0
 10 24  1  0  0  0  0
 11 25  1  0  0  0  0
M  END
