 xtb: 6.7.1 (edcfbbe)
          04112511503D

 17 16  0     0  0            999 V2000
    1.6632   -0.7756    0.4916 C   0  0  0  0  0  0  0  0  0  0  0  0
    1.3633    0.5494   -0.1992 C   0  0  0  0  0  0  0  0  0  0  0  0
   -0.0301    0.6196   -0.8281 C   0  0  0  0  0  0  0  0  0  0  0  0
   -1.1833    0.5523    0.1841 C   0  0  0  0  0  0  0  0  0  0  0  0
   -1.8036   -0.8367    0.2996 C   0  0  0  0  0  0  0  0  0  0  0  0
    1.5155   -1.6054   -0.1961 H   0  0  0  0  0  0  0  0  0  0  0  0
    1.0189   -0.9184    1.3548 H   0  0  0  0  0  0  0  0  0  0  0  0
    2.6954   -0.7943    0.8343 H   0  0  0  0  0  0  0  0  0  0  0  0
    1.4709    1.3639    0.5212 H   0  0  0  0  0  0  0  0  0  0  0  0
    2.1026    0.7101   -0.9880 H   0  0  0  0  0  0  0  0  0  0  0  0
   -0.1374   -0.1902   -1.5527 H   0  0  0  0  0  0  0  0  0  0  0  0
   -0.0945    1.5599   -1.3802 H   0  0  0  0  0  0  0  0  0  0  0  0
   -0.8253    0.8751    1.1638 H   0  0  0  0  0  0  0  0  0  0  0  0
   -1.9675    1.2499   -0.1183 H   0  0  0  0  0  0  0  0  0  0  0  0
   -2.2219   -1.1433   -0.6568 H   0  0  0  0  0  0  0  0  0  0  0  0
   -2.6046   -0.8321    1.0359 H   0  0  0  0  0  0  0  0  0  0  0  0
   -1.0656   -1.5743    0.6009 H   0  0  0  0  0  0  0  0  0  0  0  0
  1  2  1  0  0  0  0
  2  3  1  0  0  0  0
  3  4  1  0  0  0  0
  4  5  1  0  0  0  0
  1  6  1  0  0  0  0
  1  7  1  0  0  0  0
  1  8  1  0  0  0  0
  2  9  1  0  0  0  0
  2 10  1  0  0  0  0
  3 11  1  0  0  0  0
  3 12  1  0  0  0  0
  4 13  1  0  0  0  0
  4 14  1  0  0  0  0
  5 15  1  0  0  0  0
  5 16  1  0  0  0  0
  5 17  1  0  0  0  0
M  END
