 xtb: 6.7.1 (edcfbbe)
          04112511553D

 24 24  0     0  0            999 V2000
   -3.2357   -0.0823   -0.5846 C   0  0  0  0  0  0  0  0  0  0  0  0
   -1.7111   -0.0567   -0.5755 C   0  0  0  0  0  0  0  0  0  0  0  0
   -1.1675   -0.1958    0.8457 C   0  0  0  0  0  0  0  0  0  0  0  0
    0.3605   -0.1562    0.9827 C   0  0  0  0  0  0  0  0  0  0  0  0
    1.0887   -1.2002    0.1112 C   0  0  0  0  0  0  0  0  0  0  0  0
    1.7737   -0.4001   -0.9949 C   0  0  0  0  0  0  0  0  0  0  0  0
    2.1859    0.8821   -0.2796 C   0  0  0  0  0  0  0  0  0  0  0  0
    0.9711    1.2059    0.5910 C   0  0  0  0  0  0  0  0  0  0  0  0
   -3.6350    0.7373    0.0091 H   0  0  0  0  0  0  0  0  0  0  0  0
   -3.6137    0.0127   -1.5998 H   0  0  0  0  0  0  0  0  0  0  0  0
   -3.6041   -1.0168   -0.1668 H   0  0  0  0  0  0  0  0  0  0  0  0
   -1.3389   -0.8724   -1.1969 H   0  0  0  0  0  0  0  0  0  0  0  0
   -1.3708    0.8804   -1.0188 H   0  0  0  0  0  0  0  0  0  0  0  0
   -1.5852    0.6057    1.4612 H   0  0  0  0  0  0  0  0  0  0  0  0
   -1.5237   -1.1430    1.2598 H   0  0  0  0  0  0  0  0  0  0  0  0
    0.5807   -0.3576    2.0358 H   0  0  0  0  0  0  0  0  0  0  0  0
    1.8464   -1.7116    0.7069 H   0  0  0  0  0  0  0  0  0  0  0  0
    0.4091   -1.9555   -0.2788 H   0  0  0  0  0  0  0  0  0  0  0  0
    2.6198   -0.9308   -1.4296 H   0  0  0  0  0  0  0  0  0  0  0  0
    1.0647   -0.1681   -1.7904 H   0  0  0  0  0  0  0  0  0  0  0  0
    3.0572    0.6879    0.3482 H   0  0  0  0  0  0  0  0  0  0  0  0
    2.4313    1.6902   -0.9674 H   0  0  0  0  0  0  0  0  0  0  0  0
    1.2442    1.7912    1.4683 H   0  0  0  0  0  0  0  0  0  0  0  0
    0.2528    1.7892    0.0160 H   0  0  0  0  0  0  0  0  0  0  0  0
  1  2  1  0  0  0  0
  2  3  1  0  0  0  0
  3  4  1  0  0  0  0
  4  5  1  0  0  0  0
  5  6  1  0  0  0  0
  6  7  1  0  0  0  0
  4  8  1  0  0  0  0
  7  8  1  0  0  0  0
  1  9  1  0  0  0  0
  1 10  1  0  0  0  0
  1 11  1  0  0  0  0
  2 12  1  0  0  0  0
  2 13  1  0  0  0  0
  3 14  1  0  0  0  0
  3 15  1  0  0  0  0
  4 16  1  0  0  0  0
  5 17  1  0  0  0  0
  5 18  1  0  0  0  0
  6 19  1  0  0  0  0
  6 20  1  0  0  0  0
  7 21  1  0  0  0  0
  7 22  1  0  0  0  0
  8 23  1  0  0  0  0
  8 24  1  0  0  0  0
M  END
