 xtb: 6.7.1 (edcfbbe)
          04112511493D

 21 20  0     0  0            999 V2000
    1.7869   -0.7613    0.9598 C   0  0  0  0  0  0  0  0  0  0  0  0
    1.1778    0.4364    0.2319 C   0  0  0  0  0  0  0  0  0  0  0  0
    0.8610    1.1872    0.9628 H   0  0  0  0  0  0  0  0  0  0  0  0
   -0.0065    0.0393   -0.6606 C   0  0  0  0  0  0  0  0  0  0  0  0
   -1.2422   -0.4909    0.0748 C   0  0  0  0  0  0  0  0  0  0  0  0
   -1.8827    0.5781    0.9571 C   0  0  0  0  0  0  0  0  0  0  0  0
   -2.2598   -0.9968   -0.9482 C   0  0  0  0  0  0  0  0  0  0  0  0
    2.1615    1.1138   -0.5373 O   0  0  0  0  0  0  0  0  0  0  0  0
    2.0294   -1.5524    0.2532 H   0  0  0  0  0  0  0  0  0  0  0  0
    2.6972   -0.4526    1.4682 H   0  0  0  0  0  0  0  0  0  0  0  0
    1.0931   -1.1498    1.6982 H   0  0  0  0  0  0  0  0  0  0  0  0
   -0.2917    0.9192   -1.2434 H   0  0  0  0  0  0  0  0  0  0  0  0
    0.3384   -0.7262   -1.3617 H   0  0  0  0  0  0  0  0  0  0  0  0
   -0.9455   -1.3346    0.7055 H   0  0  0  0  0  0  0  0  0  0  0  0
   -1.2112    0.8859    1.7539 H   0  0  0  0  0  0  0  0  0  0  0  0
   -2.7927    0.1933    1.4115 H   0  0  0  0  0  0  0  0  0  0  0  0
   -2.1387    1.4536    0.3644 H   0  0  0  0  0  0  0  0  0  0  0  0
   -2.5751   -0.1855   -1.6006 H   0  0  0  0  0  0  0  0  0  0  0  0
   -1.8307   -1.7850   -1.5623 H   0  0  0  0  0  0  0  0  0  0  0  0
   -3.1383   -1.3942   -0.4459 H   0  0  0  0  0  0  0  0  0  0  0  0
    2.5102    0.5025   -1.2014 H   0  0  0  0  0  0  0  0  0  0  0  0
  1  2  1  0  0  0  0
  2  3  1  0  0  0  0
  2  4  1  0  0  0  0
  4  5  1  0  0  0  0
  5  6  1  0  0  0  0
  5  7  1  0  0  0  0
  2  8  1  0  0  0  0
  1  9  1  0  0  0  0
  1 10  1  0  0  0  0
  1 11  1  0  0  0  0
  4 12  1  0  0  0  0
  4 13  1  0  0  0  0
  5 14  1  0  0  0  0
  6 15  1  0  0  0  0
  6 16  1  0  0  0  0
  6 17  1  0  0  0  0
  7 18  1  0  0  0  0
  7 19  1  0  0  0  0
  7 20  1  0  0  0  0
  8 21  1  0  0  0  0
M  END
