 xtb: 6.7.1 (edcfbbe)
          04112511223D

 22 21  0     0  0            999 V2000
    1.8260   -0.5353    1.2974 C   0  0  0  0  0  0  0  0  0  0  0  0
    1.4897   -0.0264   -0.1063 C   0  0  0  0  0  0  0  0  0  0  0  0
    1.7518    1.4765   -0.2288 C   0  0  0  0  0  0  0  0  0  0  0  0
    0.0532   -0.3502   -0.4636 C   0  0  0  0  0  0  0  0  0  0  0  0
   -0.2065   -1.0738   -1.4058 O   0  0  0  0  0  0  0  0  0  0  0  0
   -1.0489    0.2537    0.3864 C   0  0  0  0  0  0  0  0  0  0  0  0
   -1.8658   -0.8817    1.0096 C   0  0  0  0  0  0  0  0  0  0  0  0
   -1.9358    1.1251   -0.5075 C   0  0  0  0  0  0  0  0  0  0  0  0
    1.2474   -0.0132    2.0541 H   0  0  0  0  0  0  0  0  0  0  0  0
    2.8815   -0.3710    1.4971 H   0  0  0  0  0  0  0  0  0  0  0  0
    1.6223   -1.6009    1.3739 H   0  0  0  0  0  0  0  0  0  0  0  0
    2.1179   -0.5544   -0.8327 H   0  0  0  0  0  0  0  0  0  0  0  0
    2.8058    1.6741   -0.0526 H   0  0  0  0  0  0  0  0  0  0  0  0
    1.4975    1.8261   -1.2268 H   0  0  0  0  0  0  0  0  0  0  0  0
    1.1705    2.0376    0.4972 H   0  0  0  0  0  0  0  0  0  0  0  0
   -0.6228    0.8686    1.1801 H   0  0  0  0  0  0  0  0  0  0  0  0
   -1.2502   -1.4723    1.6839 H   0  0  0  0  0  0  0  0  0  0  0  0
   -2.7049   -0.4742    1.5668 H   0  0  0  0  0  0  0  0  0  0  0  0
   -2.2454   -1.5350    0.2270 H   0  0  0  0  0  0  0  0  0  0  0  0
   -2.3178    0.5334   -1.3365 H   0  0  0  0  0  0  0  0  0  0  0  0
   -2.7739    1.5133    0.0647 H   0  0  0  0  0  0  0  0  0  0  0  0
   -1.3698    1.9609   -0.9121 H   0  0  0  0  0  0  0  0  0  0  0  0
  1  2  1  0  0  0  0
  2  3  1  0  0  0  0
  2  4  1  0  0  0  0
  4  5  2  0  0  0  0
  4  6  1  0  0  0  0
  6  7  1  0  0  0  0
  6  8  1  0  0  0  0
  1  9  1  0  0  0  0
  1 10  1  0  0  0  0
  1 11  1  0  0  0  0
  2 12  1  0  0  0  0
  3 13  1  0  0  0  0
  3 14  1  0  0  0  0
  3 15  1  0  0  0  0
  6 16  1  0  0  0  0
  7 17  1  0  0  0  0
  7 18  1  0  0  0  0
  7 19  1  0  0  0  0
  8 20  1  0  0  0  0
  8 21  1  0  0  0  0
  8 22  1  0  0  0  0
M  END
