 xtb: 6.7.1 (edcfbbe)
          04112511493D

 17 16  0     0  0            999 V2000
   -3.2017    0.5419    0.0368 C   0  0  0  0  0  0  0  0  0  0  0  0
   -1.8072    0.2577   -0.5059 C   0  0  0  0  0  0  0  0  0  0  0  0
   -0.8049    0.0235    0.6311 C   0  0  0  0  0  0  0  0  0  0  0  0
    0.5429   -0.3489    0.0743 C   0  0  0  0  0  0  0  0  0  0  0  0
    0.7617   -1.3158   -0.6258 O   0  0  0  0  0  0  0  0  0  0  0  0
    1.4787    0.5202    0.4369 O   0  0  0  0  0  0  0  0  0  0  0  0
    2.8203    0.3142   -0.0166 C   0  0  0  0  0  0  0  0  0  0  0  0
   -3.1894    1.4230    0.6732 H   0  0  0  0  0  0  0  0  0  0  0  0
   -3.8940    0.7168   -0.7821 H   0  0  0  0  0  0  0  0  0  0  0  0
   -3.5632   -0.3010    0.6201 H   0  0  0  0  0  0  0  0  0  0  0  0
   -1.4704    1.1001   -1.1133 H   0  0  0  0  0  0  0  0  0  0  0  0
   -1.8252   -0.6284   -1.1435 H   0  0  0  0  0  0  0  0  0  0  0  0
   -1.1551   -0.8060    1.2478 H   0  0  0  0  0  0  0  0  0  0  0  0
   -0.6986    0.9160    1.2461 H   0  0  0  0  0  0  0  0  0  0  0  0
    3.4690    0.6996    0.7649 H   0  0  0  0  0  0  0  0  0  0  0  0
    2.9715    0.8632   -0.9458 H   0  0  0  0  0  0  0  0  0  0  0  0
    2.9957   -0.7486   -0.1872 H   0  0  0  0  0  0  0  0  0  0  0  0
  1  2  1  0  0  0  0
  2  3  1  0  0  0  0
  3  4  1  0  0  0  0
  4  5  2  0  0  0  0
  4  6  1  0  0  0  0
  6  7  1  0  0  0  0
  1  8  1  0  0  0  0
  1  9  1  0  0  0  0
  1 10  1  0  0  0  0
  2 11  1  0  0  0  0
  2 12  1  0  0  0  0
  3 13  1  0  0  0  0
  3 14  1  0  0  0  0
  7 15  1  0  0  0  0
  7 16  1  0  0  0  0
  7 17  1  0  0  0  0
M  END
