 xtb: 6.7.1 (edcfbbe)
          04112511193D

 14 13  0     0  0            999 V2000
   -1.4432    0.3911   -0.2042 C   0  0  0  0  0  0  0  0  0  0  0  0
    0.0143    0.3711    0.2773 C   0  0  0  0  0  0  0  0  0  0  0  0
    0.8069   -0.7258   -0.4378 C   0  0  0  0  0  0  0  0  0  0  0  0
    2.0747   -0.8242    0.1791 O   0  0  0  0  0  0  0  0  0  0  0  0
    0.5538    1.6506    0.0324 O   0  0  0  0  0  0  0  0  0  0  0  0
   -2.1377   -0.7925    0.0955 O   0  0  0  0  0  0  0  0  0  0  0  0
   -1.4563    0.4888   -1.2921 H   0  0  0  0  0  0  0  0  0  0  0  0
   -1.9355    1.2706    0.2258 H   0  0  0  0  0  0  0  0  0  0  0  0
    0.0438    0.1590    1.3589 H   0  0  0  0  0  0  0  0  0  0  0  0
    0.9081   -0.4560   -1.4967 H   0  0  0  0  0  0  0  0  0  0  0  0
    0.2500   -1.6662   -0.3571 H   0  0  0  0  0  0  0  0  0  0  0  0
    2.5822   -1.5317   -0.2396 H   0  0  0  0  0  0  0  0  0  0  0  0
    1.5033    1.6168    0.2223 H   0  0  0  0  0  0  0  0  0  0  0  0
   -2.2741   -0.8537    1.0517 H   0  0  0  0  0  0  0  0  0  0  0  0
  1  2  1  0  0  0  0
  2  3  1  0  0  0  0
  3  4  1  0  0  0  0
  2  5  1  0  0  0  0
  1  6  1  0  0  0  0
  1  7  1  0  0  0  0
  1  8  1  0  0  0  0
  2  9  1  0  0  0  0
  3 10  1  0  0  0  0
  3 11  1  0  0  0  0
  4 12  1  0  0  0  0
  5 13  1  0  0  0  0
  6 14  1  0  0  0  0
M  END
