 xtb: 6.7.1 (edcfbbe)
          04112511193D

 14 13  0     0  0            999 V2000
   -1.3085   -0.3647   -0.4406 C   0  0  0  0  0  0  0  0  0  0  0  0
    0.0401    0.0308    0.1732 C   0  0  0  0  0  0  0  0  0  0  0  0
    1.2195   -0.5019   -0.6455 C   0  0  0  0  0  0  0  0  0  0  0  0
    2.2667   -0.8376    0.2364 O   0  0  0  0  0  0  0  0  0  0  0  0
    0.1520    1.4354    0.2433 O   0  0  0  0  0  0  0  0  0  0  0  0
   -2.3199    0.1698    0.3870 O   0  0  0  0  0  0  0  0  0  0  0  0
   -1.3793   -1.4571   -0.4887 H   0  0  0  0  0  0  0  0  0  0  0  0
   -1.3748    0.0538   -1.4530 H   0  0  0  0  0  0  0  0  0  0  0  0
    0.1060   -0.3977    1.1847 H   0  0  0  0  0  0  0  0  0  0  0  0
    1.5259    0.2869   -1.3413 H   0  0  0  0  0  0  0  0  0  0  0  0
    0.9041   -1.3869   -1.2136 H   0  0  0  0  0  0  0  0  0  0  0  0
    3.0621   -1.0470   -0.2728 H   0  0  0  0  0  0  0  0  0  0  0  0
   -0.6422    1.7730    0.6847 H   0  0  0  0  0  0  0  0  0  0  0  0
   -3.1871   -0.0508    0.0219 H   0  0  0  0  0  0  0  0  0  0  0  0
  1  2  1  0  0  0  0
  2  3  1  0  0  0  0
  3  4  1  0  0  0  0
  2  5  1  0  0  0  0
  1  6  1  0  0  0  0
  1  7  1  0  0  0  0
  1  8  1  0  0  0  0
  2  9  1  0  0  0  0
  3 10  1  0  0  0  0
  3 11  1  0  0  0  0
  4 12  1  0  0  0  0
  5 13  1  0  0  0  0
  6 14  1  0  0  0  0
M  END
