 xtb: 6.7.1 (edcfbbe)
          04112511583D

 18 17  0     0  0            999 V2000
   -2.5273    0.1059    0.3135 C   0  0  0  0  0  0  0  0  0  0  0  0
   -1.2636    0.6803   -0.3156 C   0  0  0  0  0  0  0  0  0  0  0  0
   -0.0011   -0.0180    0.1994 C   0  0  0  0  0  0  0  0  0  0  0  0
    1.2653    0.6883   -0.3064 C   0  0  0  0  0  0  0  0  0  0  0  0
    2.5452    0.1382    0.3156 C   0  0  0  0  0  0  0  0  0  0  0  0
   -0.0625   -1.3667   -0.2355 O   0  0  0  0  0  0  0  0  0  0  0  0
   -3.4093    0.5818   -0.1064 H   0  0  0  0  0  0  0  0  0  0  0  0
   -2.5805   -0.9628    0.1222 H   0  0  0  0  0  0  0  0  0  0  0  0
   -2.5236    0.2660    1.3894 H   0  0  0  0  0  0  0  0  0  0  0  0
   -1.3031    0.5492   -1.3982 H   0  0  0  0  0  0  0  0  0  0  0  0
   -1.1914    1.7463   -0.0973 H   0  0  0  0  0  0  0  0  0  0  0  0
   -0.0079    0.0076    1.3021 H   0  0  0  0  0  0  0  0  0  0  0  0
    1.3071    0.5837   -1.3924 H   0  0  0  0  0  0  0  0  0  0  0  0
    1.1783    1.7496   -0.0702 H   0  0  0  0  0  0  0  0  0  0  0  0
    2.4926    0.1869    1.4014 H   0  0  0  0  0  0  0  0  0  0  0  0
    2.7156   -0.8940    0.0188 H   0  0  0  0  0  0  0  0  0  0  0  0
    3.3993    0.7247   -0.0127 H   0  0  0  0  0  0  0  0  0  0  0  0
    0.6954   -1.8470    0.1212 H   0  0  0  0  0  0  0  0  0  0  0  0
  1  2  1  0  0  0  0
  2  3  1  0  0  0  0
  3  4  1  0  0  0  0
  4  5  1  0  0  0  0
  3  6  1  0  0  0  0
  1  7  1  0  0  0  0
  1  8  1  0  0  0  0
  1  9  1  0  0  0  0
  2 10  1  0  0  0  0
  2 11  1  0  0  0  0
  3 12  1  0  0  0  0
  4 13  1  0  0  0  0
  4 14  1  0  0  0  0
  5 15  1  0  0  0  0
  5 16  1  0  0  0  0
  5 17  1  0  0  0  0
  6 18  1  0  0  0  0
M  END
