 xtb: 6.7.1 (edcfbbe)
          04112512193D

 17 16  0     0  0            999 V2000
   -2.5868    0.6938   -0.4907 C   0  0  0  0  0  0  0  0  0  0  0  0
   -1.7407    0.1893    0.6819 C   0  0  0  0  0  0  0  0  0  0  0  0
   -0.4304   -0.3419    0.1605 C   0  0  0  0  0  0  0  0  0  0  0  0
   -0.1869   -1.5149   -0.0346 O   0  0  0  0  0  0  0  0  0  0  0  0
    0.4204    0.6410   -0.1016 O   0  0  0  0  0  0  0  0  0  0  0  0
    1.7113    0.3090   -0.6393 C   0  0  0  0  0  0  0  0  0  0  0  0
    2.7113    0.0326    0.4729 C   0  0  0  0  0  0  0  0  0  0  0  0
   -2.7763   -0.1133   -1.1945 H   0  0  0  0  0  0  0  0  0  0  0  0
   -3.5377    1.0666   -0.1223 H   0  0  0  0  0  0  0  0  0  0  0  0
   -2.0696    1.4969   -1.0090 H   0  0  0  0  0  0  0  0  0  0  0  0
   -2.2577   -0.6171    1.2004 H   0  0  0  0  0  0  0  0  0  0  0  0
   -1.5379    1.0097    1.3690 H   0  0  0  0  0  0  0  0  0  0  0  0
    1.6049   -0.5656   -1.2882 H   0  0  0  0  0  0  0  0  0  0  0  0
    1.9998    1.1830   -1.2240 H   0  0  0  0  0  0  0  0  0  0  0  0
    3.6897   -0.1487    0.0402 H   0  0  0  0  0  0  0  0  0  0  0  0
    2.7677    0.8843    1.1453 H   0  0  0  0  0  0  0  0  0  0  0  0
    2.4066   -0.8456    1.0379 H   0  0  0  0  0  0  0  0  0  0  0  0
  1  2  1  0  0  0  0
  2  3  1  0  0  0  0
  3  4  2  0  0  0  0
  3  5  1  0  0  0  0
  5  6  1  0  0  0  0
  6  7  1  0  0  0  0
  1  8  1  0  0  0  0
  1  9  1  0  0  0  0
  1 10  1  0  0  0  0
  2 11  1  0  0  0  0
  2 12  1  0  0  0  0
  6 13  1  0  0  0  0
  6 14  1  0  0  0  0
  7 15  1  0  0  0  0
  7 16  1  0  0  0  0
  7 17  1  0  0  0  0
M  END
