 xtb: 6.7.1 (edcfbbe)
          04112512233D

 20 19  0     0  0            999 V2000
   -3.0258    0.6053    0.0910 C   0  0  0  0  0  0  0  0  0  0  0  0
   -1.7201   -0.1296    0.3818 C   0  0  0  0  0  0  0  0  0  0  0  0
   -1.5264   -1.2976   -0.5819 C   0  0  0  0  0  0  0  0  0  0  0  0
   -0.5508    0.8545    0.2823 C   0  0  0  0  0  0  0  0  0  0  0  0
    0.6623    0.2482    0.7447 O   0  0  0  0  0  0  0  0  0  0  0  0
    1.6509    0.0271   -0.1133 C   0  0  0  0  0  0  0  0  0  0  0  0
    1.6091    0.3312   -1.2882 O   0  0  0  0  0  0  0  0  0  0  0  0
    2.8200   -0.6316    0.5569 C   0  0  0  0  0  0  0  0  0  0  0  0
   -3.8642   -0.0806    0.1701 H   0  0  0  0  0  0  0  0  0  0  0  0
   -3.0100    1.0169   -0.9153 H   0  0  0  0  0  0  0  0  0  0  0  0
   -3.1758    1.4186    0.7958 H   0  0  0  0  0  0  0  0  0  0  0  0
   -1.7420   -0.5161    1.4058 H   0  0  0  0  0  0  0  0  0  0  0  0
   -2.3549   -1.9958   -0.5006 H   0  0  0  0  0  0  0  0  0  0  0  0
   -0.6048   -1.8319   -0.3597 H   0  0  0  0  0  0  0  0  0  0  0  0
   -1.4724   -0.9379   -1.6077 H   0  0  0  0  0  0  0  0  0  0  0  0
   -0.4076    1.1857   -0.7512 H   0  0  0  0  0  0  0  0  0  0  0  0
   -0.7210    1.7194    0.9278 H   0  0  0  0  0  0  0  0  0  0  0  0
    3.6806    0.0293    0.4909 H   0  0  0  0  0  0  0  0  0  0  0  0
    3.0635   -1.5482    0.0260 H   0  0  0  0  0  0  0  0  0  0  0  0
    2.5833   -0.8404    1.5943 H   0  0  0  0  0  0  0  0  0  0  0  0
  1  2  1  0  0  0  0
  2  3  1  0  0  0  0
  2  4  1  0  0  0  0
  4  5  1  0  0  0  0
  5  6  1  0  0  0  0
  6  7  2  0  0  0  0
  6  8  1  0  0  0  0
  1  9  1  0  0  0  0
  1 10  1  0  0  0  0
  1 11  1  0  0  0  0
  2 12  1  0  0  0  0
  3 13  1  0  0  0  0
  3 14  1  0  0  0  0
  3 15  1  0  0  0  0
  4 16  1  0  0  0  0
  4 17  1  0  0  0  0
  8 18  1  0  0  0  0
  8 19  1  0  0  0  0
  8 20  1  0  0  0  0
M  END
