 xtb: 6.7.1 (edcfbbe)
          04112510483D

 27 27  0     0  0            999 V2000
   -4.3625   -1.8849    0.8196 C   0  0  0  0  0  0  0  0  0  0  0  0
   -2.9076   -1.4361    0.7632 C   0  0  0  0  0  0  0  0  0  0  0  0
   -2.6464   -0.4895   -0.4129 C   0  0  0  0  0  0  0  0  0  0  0  0
   -3.4128    0.2928   -0.4114 H   0  0  0  0  0  0  0  0  0  0  0  0
   -2.6508   -1.1907   -1.7666 C   0  0  0  0  0  0  0  0  0  0  0  0
   -1.3752    0.2361   -0.2177 N   0  0  0  0  0  0  0  0  0  0  0  0
   -0.1847   -0.4845   -0.1441 C   0  0  0  0  0  0  0  0  0  0  0  0
   -0.1566   -1.6982   -0.2366 O   0  0  0  0  0  0  0  0  0  0  0  0
    0.9974    0.3280    0.0489 C   0  0  0  0  0  0  0  0  0  0  0  0
    0.9588    1.6805    0.1479 C   0  0  0  0  0  0  0  0  0  0  0  0
   -0.2656    2.2707    0.0610 N   0  0  0  0  0  0  0  0  0  0  0  0
   -1.4519    1.6058   -0.1178 C   0  0  0  0  0  0  0  0  0  0  0  0
   -2.4984    2.2278   -0.1810 O   0  0  0  0  0  0  0  0  0  0  0  0
    2.1441    2.5492    0.3528 C   0  0  0  0  0  0  0  0  0  0  0  0
    2.6338   -0.6291    0.1631 Br  0  0  0  0  0  0  0  0  0  0  0  0
   -4.6216   -2.4752   -0.0541 H   0  0  0  0  0  0  0  0  0  0  0  0
   -4.5237   -2.4961    1.7033 H   0  0  0  0  0  0  0  0  0  0  0  0
   -5.0245   -1.0236    0.8685 H   0  0  0  0  0  0  0  0  0  0  0  0
   -2.6607   -0.9089    1.6887 H   0  0  0  0  0  0  0  0  0  0  0  0
   -2.2523   -2.3042    0.6846 H   0  0  0  0  0  0  0  0  0  0  0  0
   -1.9204   -1.9951   -1.7827 H   0  0  0  0  0  0  0  0  0  0  0  0
   -3.6360   -1.6032   -1.9554 H   0  0  0  0  0  0  0  0  0  0  0  0
   -2.4163   -0.4808   -2.5567 H   0  0  0  0  0  0  0  0  0  0  0  0
   -0.3419    3.2805    0.1360 H   0  0  0  0  0  0  0  0  0  0  0  0
    1.8960    3.5927    0.1920 H   0  0  0  0  0  0  0  0  0  0  0  0
    2.9458    2.2552   -0.3216 H   0  0  0  0  0  0  0  0  0  0  0  0
    2.5201    2.4249    1.3677 H   0  0  0  0  0  0  0  0  0  0  0  0
  1  2  1  0  0  0  0
  2  3  1  0  0  0  0
  3  4  1  0  0  0  0
  3  5  1  0  0  0  0
  3  6  1  0  0  0  0
  6  7  1  0  0  0  0
  7  8  2  0  0  0  0
  7  9  1  0  0  0  0
  9 10  2  0  0  0  0
 10 11  1  0  0  0  0
  6 12  1  0  0  0  0
 11 12  1  0  0  0  0
 12 13  2  0  0  0  0
 10 14  1  0  0  0  0
  9 15  1  0  0  0  0
  1 16  1  0  0  0  0
  1 17  1  0  0  0  0
  1 18  1  0  0  0  0
  2 19  1  0  0  0  0
  2 20  1  0  0  0  0
  5 21  1  0  0  0  0
  5 22  1  0  0  0  0
  5 23  1  0  0  0  0
 11 24  1  0  0  0  0
 14 25  1  0  0  0  0
 14 26  1  0  0  0  0
 14 27  1  0  0  0  0
M  END
