 xtb: 6.7.1 (edcfbbe)
          04112512193D

 17 16  0     0  0            999 V2000
   -2.5161    0.3314    0.8820 C   0  0  0  0  0  0  0  0  0  0  0  0
   -1.7432    0.6255   -0.4071 C   0  0  0  0  0  0  0  0  0  0  0  0
   -0.4978   -0.2222   -0.4464 C   0  0  0  0  0  0  0  0  0  0  0  0
   -0.3919   -1.2686   -1.0538 O   0  0  0  0  0  0  0  0  0  0  0  0
    0.4661    0.3037    0.2933 O   0  0  0  0  0  0  0  0  0  0  0  0
    1.7272   -0.3784    0.4015 C   0  0  0  0  0  0  0  0  0  0  0  0
    2.8498    0.6371    0.2787 C   0  0  0  0  0  0  0  0  0  0  0  0
   -3.4224    0.9285    0.9097 H   0  0  0  0  0  0  0  0  0  0  0  0
   -2.7882   -0.7205    0.9276 H   0  0  0  0  0  0  0  0  0  0  0  0
   -1.9070    0.5741    1.7488 H   0  0  0  0  0  0  0  0  0  0  0  0
   -1.4544    1.6753   -0.4315 H   0  0  0  0  0  0  0  0  0  0  0  0
   -2.3534    0.3818   -1.2759 H   0  0  0  0  0  0  0  0  0  0  0  0
    1.7454   -0.8678    1.3795 H   0  0  0  0  0  0  0  0  0  0  0  0
    1.7785   -1.1402   -0.3826 H   0  0  0  0  0  0  0  0  0  0  0  0
    3.8028    0.1350    0.4092 H   0  0  0  0  0  0  0  0  0  0  0  0
    2.8270    1.1092   -0.6996 H   0  0  0  0  0  0  0  0  0  0  0  0
    2.7398    1.4031    1.0406 H   0  0  0  0  0  0  0  0  0  0  0  0
  1  2  1  0  0  0  0
  2  3  1  0  0  0  0
  3  4  2  0  0  0  0
  3  5  1  0  0  0  0
  5  6  1  0  0  0  0
  6  7  1  0  0  0  0
  1  8  1  0  0  0  0
  1  9  1  0  0  0  0
  1 10  1  0  0  0  0
  2 11  1  0  0  0  0
  2 12  1  0  0  0  0
  6 13  1  0  0  0  0
  6 14  1  0  0  0  0
  7 15  1  0  0  0  0
  7 16  1  0  0  0  0
  7 17  1  0  0  0  0
M  END
