 xtb: 6.7.1 (edcfbbe)
          04112511583D

 20 19  0     0  0            999 V2000
    2.1141    0.9581   -0.4397 C   0  0  0  0  0  0  0  0  0  0  0  0
    1.7233   -0.4133    0.0982 C   0  0  0  0  0  0  0  0  0  0  0  0
    0.3345   -0.4538    0.7394 C   0  0  0  0  0  0  0  0  0  0  0  0
   -0.8244   -0.2061   -0.2442 C   0  0  0  0  0  0  0  0  0  0  0  0
   -1.3530    1.2243   -0.1427 C   0  0  0  0  0  0  0  0  0  0  0  0
   -1.9677   -1.1892    0.0090 C   0  0  0  0  0  0  0  0  0  0  0  0
    1.4659    1.2533   -1.2605 H   0  0  0  0  0  0  0  0  0  0  0  0
    2.0461    1.7082    0.3453 H   0  0  0  0  0  0  0  0  0  0  0  0
    3.1377    0.9393   -0.8073 H   0  0  0  0  0  0  0  0  0  0  0  0
    1.7636   -1.1438   -0.7134 H   0  0  0  0  0  0  0  0  0  0  0  0
    2.4565   -0.7174    0.8495 H   0  0  0  0  0  0  0  0  0  0  0  0
    0.2099   -1.4394    1.1933 H   0  0  0  0  0  0  0  0  0  0  0  0
    0.2913    0.2812    1.5458 H   0  0  0  0  0  0  0  0  0  0  0  0
   -0.4586   -0.3705   -1.2638 H   0  0  0  0  0  0  0  0  0  0  0  0
   -2.1281    1.3965   -0.8867 H   0  0  0  0  0  0  0  0  0  0  0  0
   -0.5595    1.9488   -0.3011 H   0  0  0  0  0  0  0  0  0  0  0  0
   -1.7824    1.3956    0.8425 H   0  0  0  0  0  0  0  0  0  0  0  0
   -1.6303   -2.2148   -0.1224 H   0  0  0  0  0  0  0  0  0  0  0  0
   -2.3448   -1.0766    1.0235 H   0  0  0  0  0  0  0  0  0  0  0  0
   -2.7872   -1.0076   -0.6830 H   0  0  0  0  0  0  0  0  0  0  0  0
  1  2  1  0  0  0  0
  2  3  1  0  0  0  0
  3  4  1  0  0  0  0
  4  5  1  0  0  0  0
  4  6  1  0  0  0  0
  1  7  1  0  0  0  0
  1  8  1  0  0  0  0
  1  9  1  0  0  0  0
  2 10  1  0  0  0  0
  2 11  1  0  0  0  0
  3 12  1  0  0  0  0
  3 13  1  0  0  0  0
  4 14  1  0  0  0  0
  5 15  1  0  0  0  0
  5 16  1  0  0  0  0
  5 17  1  0  0  0  0
  6 18  1  0  0  0  0
  6 19  1  0  0  0  0
  6 20  1  0  0  0  0
M  END
