 xtb: 6.7.1 (edcfbbe)
          04112511403D

 22 22  0     0  0            999 V2000
   -2.8940    0.9740    1.0541 C   0  0  0  0  0  0  0  0  0  0  0  0
   -2.9349   -0.3855    0.3679 C   0  0  0  0  0  0  0  0  0  0  0  0
   -2.0606   -0.4237   -0.8933 C   0  0  0  0  0  0  0  0  0  0  0  0
   -0.6058   -0.2512   -0.5612 C   0  0  0  0  0  0  0  0  0  0  0  0
    0.1244   -1.3081   -0.0286 C   0  0  0  0  0  0  0  0  0  0  0  0
    1.4523   -1.1580    0.3155 C   0  0  0  0  0  0  0  0  0  0  0  0
    2.0850    0.0681    0.1320 C   0  0  0  0  0  0  0  0  0  0  0  0
    1.3674    1.1307   -0.4013 C   0  0  0  0  0  0  0  0  0  0  0  0
    0.0363    0.9656   -0.7414 C   0  0  0  0  0  0  0  0  0  0  0  0
    3.3978    0.1739    0.4851 O   0  0  0  0  0  0  0  0  0  0  0  0
   -3.5229    0.9711    1.9410 H   0  0  0  0  0  0  0  0  0  0  0  0
   -1.8769    1.2176    1.3532 H   0  0  0  0  0  0  0  0  0  0  0  0
   -3.2510    1.7510    0.3818 H   0  0  0  0  0  0  0  0  0  0  0  0
   -3.9645   -0.6206    0.0903 H   0  0  0  0  0  0  0  0  0  0  0  0
   -2.5907   -1.1528    1.0643 H   0  0  0  0  0  0  0  0  0  0  0  0
   -2.3809    0.3673   -1.5735 H   0  0  0  0  0  0  0  0  0  0  0  0
   -2.2069   -1.3841   -1.3923 H   0  0  0  0  0  0  0  0  0  0  0  0
   -0.3536   -2.2658    0.1166 H   0  0  0  0  0  0  0  0  0  0  0  0
    2.0209   -1.9773    0.7272 H   0  0  0  0  0  0  0  0  0  0  0  0
    1.8472    2.0875   -0.5512 H   0  0  0  0  0  0  0  0  0  0  0  0
   -0.5089    1.8013   -1.1552 H   0  0  0  0  0  0  0  0  0  0  0  0
    3.7239    1.0690    0.3089 H   0  0  0  0  0  0  0  0  0  0  0  0
  1  2  1  0  0  0  0
  2  3  1  0  0  0  0
  3  4  1  0  0  0  0
  4  5  4  0  0  0  0
  5  6  4  0  0  0  0
  6  7  4  0  0  0  0
  7  8  4  0  0  0  0
  4  9  4  0  0  0  0
  8  9  4  0  0  0  0
  7 10  1  0  0  0  0
  1 11  1  0  0  0  0
  1 12  1  0  0  0  0
  1 13  1  0  0  0  0
  2 14  1  0  0  0  0
  2 15  1  0  0  0  0
  3 16  1  0  0  0  0
  3 17  1  0  0  0  0
  5 18  1  0  0  0  0
  6 19  1  0  0  0  0
  8 20  1  0  0  0  0
  9 21  1  0  0  0  0
 10 22  1  0  0  0  0
M  END
