 xtb: 6.7.1 (edcfbbe)
          04112511573D

 14 13  0     0  0            999 V2000
    2.0605   -0.3116   -0.4560 C   0  0  0  0  0  0  0  0  0  0  0  0
    1.2787    0.4984    0.4000 O   0  0  0  0  0  0  0  0  0  0  0  0
   -0.0127   -0.0054    0.6742 C   0  0  0  0  0  0  0  0  0  0  0  0
   -0.9916    0.1294   -0.4990 C   0  0  0  0  0  0  0  0  0  0  0  0
   -2.3126   -0.3160   -0.0820 N   0  0  0  0  0  0  0  0  0  0  0  0
    3.0576    0.1224   -0.4465 H   0  0  0  0  0  0  0  0  0  0  0  0
    1.6725   -0.3106   -1.4784 H   0  0  0  0  0  0  0  0  0  0  0  0
    2.1004   -1.3408   -0.0852 H   0  0  0  0  0  0  0  0  0  0  0  0
    0.0423   -1.0570    0.9840 H   0  0  0  0  0  0  0  0  0  0  0  0
   -0.3722    0.5910    1.5171 H   0  0  0  0  0  0  0  0  0  0  0  0
   -0.9627    1.1753   -0.8501 H   0  0  0  0  0  0  0  0  0  0  0  0
   -0.6728   -0.5140   -1.3231 H   0  0  0  0  0  0  0  0  0  0  0  0
   -2.9621   -0.2239   -0.8546 H   0  0  0  0  0  0  0  0  0  0  0  0
   -2.6498    0.2727    0.6724 H   0  0  0  0  0  0  0  0  0  0  0  0
  1  2  1  0  0  0  0
  2  3  1  0  0  0  0
  3  4  1  0  0  0  0
  4  5  1  0  0  0  0
  1  6  1  0  0  0  0
  1  7  1  0  0  0  0
  1  8  1  0  0  0  0
  3  9  1  0  0  0  0
  3 10  1  0  0  0  0
  4 11  1  0  0  0  0
  4 12  1  0  0  0  0
  5 13  1  0  0  0  0
  5 14  1  0  0  0  0
M  END
