 xtb: 6.7.1 (edcfbbe)
          04112512143D

 21 20  0     0  0            999 V2000
    2.7739   -0.0808   -0.2639 C   0  0  0  0  0  0  0  0  0  0  0  0
    1.3527   -0.0589   -0.8144 C   0  0  0  0  0  0  0  0  0  0  0  0
    0.3138   -0.2151    0.3005 C   0  0  0  0  0  0  0  0  0  0  0  0
    0.6270   -1.0545    0.9449 H   0  0  0  0  0  0  0  0  0  0  0  0
   -1.0935   -0.5436   -0.2477 C   0  0  0  0  0  0  0  0  0  0  0  0
   -2.0691   -0.8281    0.8960 C   0  0  0  0  0  0  0  0  0  0  0  0
   -1.6292    0.5831   -1.1286 C   0  0  0  0  0  0  0  0  0  0  0  0
    0.3305    0.9827    1.0575 O   0  0  0  0  0  0  0  0  0  0  0  0
    3.4919    0.0876   -1.0621 H   0  0  0  0  0  0  0  0  0  0  0  0
    2.9896   -1.0403    0.2012 H   0  0  0  0  0  0  0  0  0  0  0  0
    2.8910    0.7011    0.4823 H   0  0  0  0  0  0  0  0  0  0  0  0
    1.1765    0.8948   -1.3121 H   0  0  0  0  0  0  0  0  0  0  0  0
    1.2213   -0.8637   -1.5387 H   0  0  0  0  0  0  0  0  0  0  0  0
   -0.9938   -1.4542   -0.8478 H   0  0  0  0  0  0  0  0  0  0  0  0
   -1.6623   -1.5747    1.5752 H   0  0  0  0  0  0  0  0  0  0  0  0
   -2.2843    0.0804    1.4541 H   0  0  0  0  0  0  0  0  0  0  0  0
   -3.0079   -1.2052    0.4981 H   0  0  0  0  0  0  0  0  0  0  0  0
   -1.5514    1.5322   -0.6026 H   0  0  0  0  0  0  0  0  0  0  0  0
   -2.6727    0.4038   -1.3746 H   0  0  0  0  0  0  0  0  0  0  0  0
   -1.0656    0.6550   -2.0544 H   0  0  0  0  0  0  0  0  0  0  0  0
   -0.2182    0.8641    1.8430 H   0  0  0  0  0  0  0  0  0  0  0  0
  1  2  1  0  0  0  0
  2  3  1  0  0  0  0
  3  4  1  0  0  0  0
  3  5  1  0  0  0  0
  5  6  1  0  0  0  0
  5  7  1  0  0  0  0
  3  8  1  0  0  0  0
  1  9  1  0  0  0  0
  1 10  1  0  0  0  0
  1 11  1  0  0  0  0
  2 12  1  0  0  0  0
  2 13  1  0  0  0  0
  5 14  1  0  0  0  0
  6 15  1  0  0  0  0
  6 16  1  0  0  0  0
  6 17  1  0  0  0  0
  7 18  1  0  0  0  0
  7 19  1  0  0  0  0
  7 20  1  0  0  0  0
  8 21  1  0  0  0  0
M  END
