 xtb: 6.7.1 (edcfbbe)
          04112511193D

 14 13  0     0  0            999 V2000
   -1.2100    0.1813   -0.4800 C   0  0  0  0  0  0  0  0  0  0  0  0
   -0.0471    0.4926    0.4800 C   0  0  0  0  0  0  0  0  0  0  0  0
    0.9089   -0.7166    0.5673 C   0  0  0  0  0  0  0  0  0  0  0  0
    1.7200   -0.8287   -0.5811 O   0  0  0  0  0  0  0  0  0  0  0  0
    0.6314    1.6647    0.0858 O   0  0  0  0  0  0  0  0  0  0  0  0
   -2.0674   -0.8187    0.0135 O   0  0  0  0  0  0  0  0  0  0  0  0
   -0.8033   -0.2120   -1.4163 H   0  0  0  0  0  0  0  0  0  0  0  0
   -1.7605    1.1074   -0.6899 H   0  0  0  0  0  0  0  0  0  0  0  0
   -0.4396    0.7039    1.4799 H   0  0  0  0  0  0  0  0  0  0  0  0
    0.3088   -1.6275    0.6164 H   0  0  0  0  0  0  0  0  0  0  0  0
    1.5252   -0.6430    1.4693 H   0  0  0  0  0  0  0  0  0  0  0  0
    2.4172   -0.1592   -0.5341 H   0  0  0  0  0  0  0  0  0  0  0  0
    0.9323    1.5513   -0.8285 H   0  0  0  0  0  0  0  0  0  0  0  0
   -2.5380   -0.4865    0.7908 H   0  0  0  0  0  0  0  0  0  0  0  0
  1  2  1  0  0  0  0
  2  3  1  0  0  0  0
  3  4  1  0  0  0  0
  2  5  1  0  0  0  0
  1  6  1  0  0  0  0
  1  7  1  0  0  0  0
  1  8  1  0  0  0  0
  2  9  1  0  0  0  0
  3 10  1  0  0  0  0
  3 11  1  0  0  0  0
  4 12  1  0  0  0  0
  5 13  1  0  0  0  0
  6 14  1  0  0  0  0
M  END
