 xtb: 6.7.1 (edcfbbe)
          04112511153D

 29 28  0     0  0            999 V2000
   -3.2240    1.0300    0.0591 C   0  0  0  0  0  0  0  0  0  0  0  0
   -2.1788   -0.0024   -0.3631 C   0  0  0  0  0  0  0  0  0  0  0  0
   -2.6028   -1.3906    0.1118 C   0  0  0  0  0  0  0  0  0  0  0  0
   -0.8037    0.3961    0.1876 C   0  0  0  0  0  0  0  0  0  0  0  0
    0.3332   -0.4647   -0.3616 C   0  0  0  0  0  0  0  0  0  0  0  0
    1.7567    0.0040   -0.0045 C   0  0  0  0  0  0  0  0  0  0  0  0
    2.7431   -1.0324   -0.5563 C   0  0  0  0  0  0  0  0  0  0  0  0
    2.0673    1.3606   -0.6421 C   0  0  0  0  0  0  0  0  0  0  0  0
    1.9369    0.0983    1.5124 C   0  0  0  0  0  0  0  0  0  0  0  0
   -3.2992    1.0685    1.1438 H   0  0  0  0  0  0  0  0  0  0  0  0
   -4.2009    0.7722   -0.3433 H   0  0  0  0  0  0  0  0  0  0  0  0
   -2.9555    2.0203   -0.3018 H   0  0  0  0  0  0  0  0  0  0  0  0
   -2.1244   -0.0106   -1.4581 H   0  0  0  0  0  0  0  0  0  0  0  0
   -3.6033   -1.6219   -0.2471 H   0  0  0  0  0  0  0  0  0  0  0  0
   -1.9265   -2.1559   -0.2588 H   0  0  0  0  0  0  0  0  0  0  0  0
   -2.6109   -1.4312    1.1990 H   0  0  0  0  0  0  0  0  0  0  0  0
   -0.6253    1.4397   -0.0763 H   0  0  0  0  0  0  0  0  0  0  0  0
   -0.8307    0.3250    1.2762 H   0  0  0  0  0  0  0  0  0  0  0  0
    0.2484   -0.4984   -1.4512 H   0  0  0  0  0  0  0  0  0  0  0  0
    0.2149   -1.4852    0.0078 H   0  0  0  0  0  0  0  0  0  0  0  0
    2.6325   -1.1301   -1.6340 H   0  0  0  0  0  0  0  0  0  0  0  0
    3.7676   -0.7358   -0.3432 H   0  0  0  0  0  0  0  0  0  0  0  0
    2.5687   -2.0065   -0.1046 H   0  0  0  0  0  0  0  0  0  0  0  0
    1.4420    2.1448   -0.2239 H   0  0  0  0  0  0  0  0  0  0  0  0
    3.1060    1.6289   -0.4625 H   0  0  0  0  0  0  0  0  0  0  0  0
    1.9038    1.3242   -1.7169 H   0  0  0  0  0  0  0  0  0  0  0  0
    1.3269    0.8955    1.9284 H   0  0  0  0  0  0  0  0  0  0  0  0
    2.9768    0.3080    1.7536 H   0  0  0  0  0  0  0  0  0  0  0  0
    1.6572   -0.8384    1.9893 H   0  0  0  0  0  0  0  0  0  0  0  0
  1  2  1  0  0  0  0
  2  3  1  0  0  0  0
  2  4  1  0  0  0  0
  4  5  1  0  0  0  0
  5  6  1  0  0  0  0
  6  7  1  0  0  0  0
  6  8  1  0  0  0  0
  6  9  1  0  0  0  0
  1 10  1  0  0  0  0
  1 11  1  0  0  0  0
  1 12  1  0  0  0  0
  2 13  1  0  0  0  0
  3 14  1  0  0  0  0
  3 15  1  0  0  0  0
  3 16  1  0  0  0  0
  4 17  1  0  0  0  0
  4 18  1  0  0  0  0
  5 19  1  0  0  0  0
  5 20  1  0  0  0  0
  7 21  1  0  0  0  0
  7 22  1  0  0  0  0
  7 23  1  0  0  0  0
  8 24  1  0  0  0  0
  8 25  1  0  0  0  0
  8 26  1  0  0  0  0
  9 27  1  0  0  0  0
  9 28  1  0  0  0  0
  9 29  1  0  0  0  0
M  END
