 xtb: 6.7.1 (edcfbbe)
          04112511493D

 17 16  0     0  0            999 V2000
   -2.2190    0.7145   -0.8410 C   0  0  0  0  0  0  0  0  0  0  0  0
   -1.7819    0.5315    0.6073 C   0  0  0  0  0  0  0  0  0  0  0  0
   -0.8950   -0.7079    0.7810 C   0  0  0  0  0  0  0  0  0  0  0  0
    0.4067   -0.5596    0.0362 C   0  0  0  0  0  0  0  0  0  0  0  0
    0.7699   -1.2750   -0.8749 O   0  0  0  0  0  0  0  0  0  0  0  0
    1.1177    0.4599    0.5009 O   0  0  0  0  0  0  0  0  0  0  0  0
    2.3833    0.7572   -0.0949 C   0  0  0  0  0  0  0  0  0  0  0  0
   -2.7899   -0.1472   -1.1789 H   0  0  0  0  0  0  0  0  0  0  0  0
   -2.8389    1.6013   -0.9415 H   0  0  0  0  0  0  0  0  0  0  0  0
   -1.3545    0.8217   -1.4937 H   0  0  0  0  0  0  0  0  0  0  0  0
   -2.6624    0.4182    1.2405 H   0  0  0  0  0  0  0  0  0  0  0  0
   -1.2301    1.4106    0.9426 H   0  0  0  0  0  0  0  0  0  0  0  0
   -1.4006   -1.5972    0.4050 H   0  0  0  0  0  0  0  0  0  0  0  0
   -0.6615   -0.8404    1.8380 H   0  0  0  0  0  0  0  0  0  0  0  0
    2.3782    1.8127   -0.3585 H   0  0  0  0  0  0  0  0  0  0  0  0
    2.5314    0.1379   -0.9803 H   0  0  0  0  0  0  0  0  0  0  0  0
    3.1598    0.5546    0.6410 H   0  0  0  0  0  0  0  0  0  0  0  0
  1  2  1  0  0  0  0
  2  3  1  0  0  0  0
  3  4  1  0  0  0  0
  4  5  2  0  0  0  0
  4  6  1  0  0  0  0
  6  7  1  0  0  0  0
  1  8  1  0  0  0  0
  1  9  1  0  0  0  0
  1 10  1  0  0  0  0
  2 11  1  0  0  0  0
  2 12  1  0  0  0  0
  3 13  1  0  0  0  0
  3 14  1  0  0  0  0
  7 15  1  0  0  0  0
  7 16  1  0  0  0  0
  7 17  1  0  0  0  0
M  END
