 xtb: 6.7.1 (edcfbbe)
          04112512233D

 20 19  0     0  0            999 V2000
   -1.7109    0.8341   -0.9316 C   0  0  0  0  0  0  0  0  0  0  0  0
   -1.8369   -0.0581    0.3016 C   0  0  0  0  0  0  0  0  0  0  0  0
   -2.2241   -1.4819   -0.0912 C   0  0  0  0  0  0  0  0  0  0  0  0
   -0.5343   -0.0580    1.1104 C   0  0  0  0  0  0  0  0  0  0  0  0
    0.5606   -0.5563    0.3322 O   0  0  0  0  0  0  0  0  0  0  0  0
    1.5230    0.2774   -0.0402 C   0  0  0  0  0  0  0  0  0  0  0  0
    1.5577    1.4527    0.2640 O   0  0  0  0  0  0  0  0  0  0  0  0
    2.5564   -0.4174   -0.8769 C   0  0  0  0  0  0  0  0  0  0  0  0
   -1.3739    1.8307   -0.6531 H   0  0  0  0  0  0  0  0  0  0  0  0
   -2.6699    0.9190   -1.4349 H   0  0  0  0  0  0  0  0  0  0  0  0
   -0.9921    0.4139   -1.6324 H   0  0  0  0  0  0  0  0  0  0  0  0
   -2.6073    0.3561    0.9596 H   0  0  0  0  0  0  0  0  0  0  0  0
   -3.1416   -1.4744   -0.6730 H   0  0  0  0  0  0  0  0  0  0  0  0
   -2.3787   -2.0935    0.7937 H   0  0  0  0  0  0  0  0  0  0  0  0
   -1.4354   -1.9314   -0.6892 H   0  0  0  0  0  0  0  0  0  0  0  0
   -0.2883    0.9539    1.4475 H   0  0  0  0  0  0  0  0  0  0  0  0
   -0.6187   -0.7255    1.9708 H   0  0  0  0  0  0  0  0  0  0  0  0
    2.4552   -0.0778   -1.9053 H   0  0  0  0  0  0  0  0  0  0  0  0
    2.4140   -1.4913   -0.8278 H   0  0  0  0  0  0  0  0  0  0  0  0
    3.5469   -0.1389   -0.5290 H   0  0  0  0  0  0  0  0  0  0  0  0
  1  2  1  0  0  0  0
  2  3  1  0  0  0  0
  2  4  1  0  0  0  0
  4  5  1  0  0  0  0
  5  6  1  0  0  0  0
  6  7  2  0  0  0  0
  6  8  1  0  0  0  0
  1  9  1  0  0  0  0
  1 10  1  0  0  0  0
  1 11  1  0  0  0  0
  2 12  1  0  0  0  0
  3 13  1  0  0  0  0
  3 14  1  0  0  0  0
  3 15  1  0  0  0  0
  4 16  1  0  0  0  0
  4 17  1  0  0  0  0
  8 18  1  0  0  0  0
  8 19  1  0  0  0  0
  8 20  1  0  0  0  0
M  END
