 xtb: 6.7.1 (edcfbbe)
          04112511033D

 20 20  0     0  0            999 V2000
    2.7020   -1.4312    0.0001 C   0  0  0  0  0  0  0  0  0  0  0  0
    1.2899   -1.3573   -0.0002 O   0  0  0  0  0  0  0  0  0  0  0  0
    0.7061   -0.1207   -0.0000 C   0  0  0  0  0  0  0  0  0  0  0  0
    1.3867    1.0839    0.0005 C   0  0  0  0  0  0  0  0  0  0  0  0
    0.6887    2.2850    0.0002 C   0  0  0  0  0  0  0  0  0  0  0  0
   -0.6887    2.2850   -0.0004 C   0  0  0  0  0  0  0  0  0  0  0  0
   -1.3867    1.0839   -0.0002 C   0  0  0  0  0  0  0  0  0  0  0  0
   -0.7061   -0.1207   -0.0002 C   0  0  0  0  0  0  0  0  0  0  0  0
   -1.2899   -1.3573   -0.0007 O   0  0  0  0  0  0  0  0  0  0  0  0
   -2.7020   -1.4311    0.0008 C   0  0  0  0  0  0  0  0  0  0  0  0
    3.1229   -0.9630   -0.8938 H   0  0  0  0  0  0  0  0  0  0  0  0
    2.9303   -2.4946   -0.0015 H   0  0  0  0  0  0  0  0  0  0  0  0
    3.1223   -0.9657    0.8957 H   0  0  0  0  0  0  0  0  0  0  0  0
    2.4641    1.1009    0.0013 H   0  0  0  0  0  0  0  0  0  0  0  0
    1.2361    3.2142    0.0008 H   0  0  0  0  0  0  0  0  0  0  0  0
   -1.2361    3.2142   -0.0004 H   0  0  0  0  0  0  0  0  0  0  0  0
   -2.4641    1.1011   -0.0005 H   0  0  0  0  0  0  0  0  0  0  0  0
   -2.9304   -2.4945   -0.0007 H   0  0  0  0  0  0  0  0  0  0  0  0
   -3.1238   -0.9628   -0.8926 H   0  0  0  0  0  0  0  0  0  0  0  0
   -3.1215   -0.9658    0.8969 H   0  0  0  0  0  0  0  0  0  0  0  0
  1  2  1  0  0  0  0
  2  3  1  0  0  0  0
  3  4  4  0  0  0  0
  4  5  4  0  0  0  0
  5  6  4  0  0  0  0
  6  7  4  0  0  0  0
  3  8  4  0  0  0  0
  7  8  4  0  0  0  0
  8  9  1  0  0  0  0
  9 10  1  0  0  0  0
  1 11  1  0  0  0  0
  1 12  1  0  0  0  0
  1 13  1  0  0  0  0
  4 14  1  0  0  0  0
  5 15  1  0  0  0  0
  6 16  1  0  0  0  0
  7 17  1  0  0  0  0
 10 18  1  0  0  0  0
 10 19  1  0  0  0  0
 10 20  1  0  0  0  0
M  END
