 xtb: 6.7.1 (edcfbbe)
          04112511193D

 14 13  0     0  0            999 V2000
   -1.4498    0.1084    0.6158 C   0  0  0  0  0  0  0  0  0  0  0  0
    0.0593    0.3785    0.5181 C   0  0  0  0  0  0  0  0  0  0  0  0
    0.7974   -0.9059    0.1028 C   0  0  0  0  0  0  0  0  0  0  0  0
    2.1782   -0.7183   -0.0860 O   0  0  0  0  0  0  0  0  0  0  0  0
    0.3277    1.4452   -0.3597 O   0  0  0  0  0  0  0  0  0  0  0  0
   -1.9053   -0.3238   -0.6493 O   0  0  0  0  0  0  0  0  0  0  0  0
   -1.9500    1.0395    0.9088 H   0  0  0  0  0  0  0  0  0  0  0  0
   -1.6301   -0.6567    1.3800 H   0  0  0  0  0  0  0  0  0  0  0  0
    0.4220    0.7162    1.4956 H   0  0  0  0  0  0  0  0  0  0  0  0
    0.4092   -1.2499   -0.8585 H   0  0  0  0  0  0  0  0  0  0  0  0
    0.6097   -1.6819    0.8575 H   0  0  0  0  0  0  0  0  0  0  0  0
    2.5601   -0.3184    0.7078 H   0  0  0  0  0  0  0  0  0  0  0  0
   -0.0262    1.2135   -1.2311 H   0  0  0  0  0  0  0  0  0  0  0  0
   -2.8600   -0.4688   -0.6155 H   0  0  0  0  0  0  0  0  0  0  0  0
  1  2  1  0  0  0  0
  2  3  1  0  0  0  0
  3  4  1  0  0  0  0
  2  5  1  0  0  0  0
  1  6  1  0  0  0  0
  1  7  1  0  0  0  0
  1  8  1  0  0  0  0
  2  9  1  0  0  0  0
  3 10  1  0  0  0  0
  3 11  1  0  0  0  0
  4 12  1  0  0  0  0
  5 13  1  0  0  0  0
  6 14  1  0  0  0  0
M  END
