 xtb: 6.7.1 (edcfbbe)
          04112511553D

 24 24  0     0  0            999 V2000
   -2.9864    0.0631    0.8694 C   0  0  0  0  0  0  0  0  0  0  0  0
   -2.3416    0.3133   -0.4893 C   0  0  0  0  0  0  0  0  0  0  0  0
   -1.1222   -0.5732   -0.7512 C   0  0  0  0  0  0  0  0  0  0  0  0
    0.0804   -0.2607    0.1369 C   0  0  0  0  0  0  0  0  0  0  0  0
    1.2513   -1.2208   -0.0998 C   0  0  0  0  0  0  0  0  0  0  0  0
    2.4488   -0.4542    0.4490 C   0  0  0  0  0  0  0  0  0  0  0  0
    2.2127    0.9692   -0.0592 C   0  0  0  0  0  0  0  0  0  0  0  0
    0.6829    1.1380   -0.1021 C   0  0  0  0  0  0  0  0  0  0  0  0
   -2.3144    0.3378    1.6780 H   0  0  0  0  0  0  0  0  0  0  0  0
   -3.8939    0.6537    0.9694 H   0  0  0  0  0  0  0  0  0  0  0  0
   -3.2463   -0.9876    0.9791 H   0  0  0  0  0  0  0  0  0  0  0  0
   -3.0815    0.1181   -1.2692 H   0  0  0  0  0  0  0  0  0  0  0  0
   -2.0523    1.3630   -0.5651 H   0  0  0  0  0  0  0  0  0  0  0  0
   -1.4066   -1.6181   -0.6024 H   0  0  0  0  0  0  0  0  0  0  0  0
   -0.8225   -0.4591   -1.7964 H   0  0  0  0  0  0  0  0  0  0  0  0
   -0.2199   -0.3470    1.1848 H   0  0  0  0  0  0  0  0  0  0  0  0
    1.1037   -2.1829    0.3889 H   0  0  0  0  0  0  0  0  0  0  0  0
    1.3789   -1.3922   -1.1704 H   0  0  0  0  0  0  0  0  0  0  0  0
    2.4292   -0.4730    1.5400 H   0  0  0  0  0  0  0  0  0  0  0  0
    3.4018   -0.8619    0.1150 H   0  0  0  0  0  0  0  0  0  0  0  0
    2.6894    1.7133    0.5775 H   0  0  0  0  0  0  0  0  0  0  0  0
    2.6289    1.0721   -1.0620 H   0  0  0  0  0  0  0  0  0  0  0  0
    0.3429    1.8412    0.6575 H   0  0  0  0  0  0  0  0  0  0  0  0
    0.3712    1.5242   -1.0728 H   0  0  0  0  0  0  0  0  0  0  0  0
  1  2  1  0  0  0  0
  2  3  1  0  0  0  0
  3  4  1  0  0  0  0
  4  5  1  0  0  0  0
  5  6  1  0  0  0  0
  6  7  1  0  0  0  0
  4  8  1  0  0  0  0
  7  8  1  0  0  0  0
  1  9  1  0  0  0  0
  1 10  1  0  0  0  0
  1 11  1  0  0  0  0
  2 12  1  0  0  0  0
  2 13  1  0  0  0  0
  3 14  1  0  0  0  0
  3 15  1  0  0  0  0
  4 16  1  0  0  0  0
  5 17  1  0  0  0  0
  5 18  1  0  0  0  0
  6 19  1  0  0  0  0
  6 20  1  0  0  0  0
  7 21  1  0  0  0  0
  7 22  1  0  0  0  0
  8 23  1  0  0  0  0
  8 24  1  0  0  0  0
M  END
