 xtb: 6.7.1 (edcfbbe)
          04112512213D

 19 18  0     0  0            999 V2000
    1.4763    0.9125   -0.9472 C   0  0  0  0  0  0  0  0  0  0  0  0
    1.3839    0.1205    0.3551 C   0  0  0  0  0  0  0  0  0  0  0  0
    1.6599   -1.3594    0.1084 C   0  0  0  0  0  0  0  0  0  0  0  0
    0.0129    0.3308    1.0354 C   0  0  0  0  0  0  0  0  0  0  0  0
   -1.1429   -0.0005    0.1213 C   0  0  0  0  0  0  0  0  0  0  0  0
   -1.3939   -1.1378   -0.2304 O   0  0  0  0  0  0  0  0  0  0  0  0
   -1.9713    1.1709   -0.3163 C   0  0  0  0  0  0  0  0  0  0  0  0
    1.2653    1.9654   -0.7758 H   0  0  0  0  0  0  0  0  0  0  0  0
    2.4767    0.8296   -1.3649 H   0  0  0  0  0  0  0  0  0  0  0  0
    0.7697    0.5247   -1.6785 H   0  0  0  0  0  0  0  0  0  0  0  0
    2.1429    0.5025    1.0468 H   0  0  0  0  0  0  0  0  0  0  0  0
    1.6897   -1.9066    1.0478 H   0  0  0  0  0  0  0  0  0  0  0  0
    2.6146   -1.4867   -0.3959 H   0  0  0  0  0  0  0  0  0  0  0  0
    0.8801   -1.7945   -0.5129 H   0  0  0  0  0  0  0  0  0  0  0  0
   -0.0672    1.3643    1.3690 H   0  0  0  0  0  0  0  0  0  0  0  0
   -0.0393   -0.3321    1.9012 H   0  0  0  0  0  0  0  0  0  0  0  0
   -1.3321    1.9302   -0.7588 H   0  0  0  0  0  0  0  0  0  0  0  0
   -2.7295    0.8569   -1.0287 H   0  0  0  0  0  0  0  0  0  0  0  0
   -2.4518    1.6054    0.5577 H   0  0  0  0  0  0  0  0  0  0  0  0
  1  2  1  0  0  0  0
  2  3  1  0  0  0  0
  2  4  1  0  0  0  0
  4  5  1  0  0  0  0
  5  6  2  0  0  0  0
  5  7  1  0  0  0  0
  1  8  1  0  0  0  0
  1  9  1  0  0  0  0
  1 10  1  0  0  0  0
  2 11  1  0  0  0  0
  3 12  1  0  0  0  0
  3 13  1  0  0  0  0
  3 14  1  0  0  0  0
  4 15  1  0  0  0  0
  4 16  1  0  0  0  0
  7 17  1  0  0  0  0
  7 18  1  0  0  0  0
  7 19  1  0  0  0  0
M  END
