 xtb: 6.7.1 (edcfbbe)
          04112512203D

 18 17  0     0  0            999 V2000
   -2.2135    0.9211    0.1907 C   0  0  0  0  0  0  0  0  0  0  0  0
   -0.8576    0.6622   -0.4553 C   0  0  0  0  0  0  0  0  0  0  0  0
   -0.0365   -0.4131    0.2651 C   0  0  0  0  0  0  0  0  0  0  0  0
   -0.0675   -0.2101    1.3424 H   0  0  0  0  0  0  0  0  0  0  0  0
   -0.5808   -1.8166    0.0149 C   0  0  0  0  0  0  0  0  0  0  0  0
    1.4280   -0.3399   -0.1915 C   0  0  0  0  0  0  0  0  0  0  0  0
    2.0501    0.8905    0.1107 O   0  0  0  0  0  0  0  0  0  0  0  0
   -2.8410    0.0347    0.1515 H   0  0  0  0  0  0  0  0  0  0  0  0
   -2.0921    1.2119    1.2318 H   0  0  0  0  0  0  0  0  0  0  0  0
   -2.7286    1.7241   -0.3307 H   0  0  0  0  0  0  0  0  0  0  0  0
   -0.2787    1.5891   -0.4562 H   0  0  0  0  0  0  0  0  0  0  0  0
   -0.9989    0.3625   -1.4960 H   0  0  0  0  0  0  0  0  0  0  0  0
    0.0187   -2.5573    0.5390 H   0  0  0  0  0  0  0  0  0  0  0  0
   -0.5582   -2.0460   -1.0480 H   0  0  0  0  0  0  0  0  0  0  0  0
   -1.6054   -1.8977    0.3653 H   0  0  0  0  0  0  0  0  0  0  0  0
    1.4818   -0.4308   -1.2795 H   0  0  0  0  0  0  0  0  0  0  0  0
    1.9977   -1.1687    0.2509 H   0  0  0  0  0  0  0  0  0  0  0  0
    2.0651    1.0060    1.0710 H   0  0  0  0  0  0  0  0  0  0  0  0
  1  2  1  0  0  0  0
  2  3  1  0  0  0  0
  3  4  1  0  0  0  0
  3  5  1  0  0  0  0
  3  6  1  0  0  0  0
  6  7  1  0  0  0  0
  1  8  1  0  0  0  0
  1  9  1  0  0  0  0
  1 10  1  0  0  0  0
  2 11  1  0  0  0  0
  2 12  1  0  0  0  0
  5 13  1  0  0  0  0
  5 14  1  0  0  0  0
  5 15  1  0  0  0  0
  6 16  1  0  0  0  0
  6 17  1  0  0  0  0
  7 18  1  0  0  0  0
M  END
