 xtb: 6.7.1 (edcfbbe)
          04112512153D

 21 20  0     0  0            999 V2000
    1.9157   -1.0547    0.2897 C   0  0  0  0  0  0  0  0  0  0  0  0
    1.2603    0.1900    0.8819 C   0  0  0  0  0  0  0  0  0  0  0  0
    0.1800    0.8486    0.0037 C   0  0  0  0  0  0  0  0  0  0  0  0
   -0.0403    1.8285    0.4671 H   0  0  0  0  0  0  0  0  0  0  0  0
   -1.1814    0.1316   -0.1150 C   0  0  0  0  0  0  0  0  0  0  0  0
   -1.1174   -1.2116   -0.8378 C   0  0  0  0  0  0  0  0  0  0  0  0
   -1.8629   -0.0153    1.2424 C   0  0  0  0  0  0  0  0  0  0  0  0
    0.6483    1.0702   -1.3171 O   0  0  0  0  0  0  0  0  0  0  0  0
    2.0800   -0.9222   -0.7768 H   0  0  0  0  0  0  0  0  0  0  0  0
    1.3018   -1.9375    0.4335 H   0  0  0  0  0  0  0  0  0  0  0  0
    2.8758   -1.2304    0.7694 H   0  0  0  0  0  0  0  0  0  0  0  0
    0.8289   -0.0347    1.8566 H   0  0  0  0  0  0  0  0  0  0  0  0
    2.0371    0.9441    1.0400 H   0  0  0  0  0  0  0  0  0  0  0  0
   -1.7869    0.8041   -0.7352 H   0  0  0  0  0  0  0  0  0  0  0  0
   -2.1172   -1.5064   -1.1482 H   0  0  0  0  0  0  0  0  0  0  0  0
   -0.4911   -1.1289   -1.7214 H   0  0  0  0  0  0  0  0  0  0  0  0
   -0.7225   -1.9880   -0.1901 H   0  0  0  0  0  0  0  0  0  0  0  0
   -2.8810   -0.3696    1.1037 H   0  0  0  0  0  0  0  0  0  0  0  0
   -1.8974    0.9381    1.7647 H   0  0  0  0  0  0  0  0  0  0  0  0
   -1.3363   -0.7348    1.8641 H   0  0  0  0  0  0  0  0  0  0  0  0
    1.4600    1.5929   -1.2766 H   0  0  0  0  0  0  0  0  0  0  0  0
  1  2  1  0  0  0  0
  2  3  1  0  0  0  0
  3  4  1  0  0  0  0
  3  5  1  0  0  0  0
  5  6  1  0  0  0  0
  5  7  1  0  0  0  0
  3  8  1  0  0  0  0
  1  9  1  0  0  0  0
  1 10  1  0  0  0  0
  1 11  1  0  0  0  0
  2 12  1  0  0  0  0
  2 13  1  0  0  0  0
  5 14  1  0  0  0  0
  6 15  1  0  0  0  0
  6 16  1  0  0  0  0
  6 17  1  0  0  0  0
  7 18  1  0  0  0  0
  7 19  1  0  0  0  0
  7 20  1  0  0  0  0
  8 21  1  0  0  0  0
M  END
