 xtb: 6.7.1 (edcfbbe)
          04112512143D

 21 20  0     0  0            999 V2000
    2.7915   -0.1430   -0.2667 C   0  0  0  0  0  0  0  0  0  0  0  0
    1.3644   -0.0749   -0.8024 C   0  0  0  0  0  0  0  0  0  0  0  0
    0.3087   -0.2005    0.3063 C   0  0  0  0  0  0  0  0  0  0  0  0
    0.6047   -1.0286    0.9742 H   0  0  0  0  0  0  0  0  0  0  0  0
   -1.0897   -0.5350   -0.2492 C   0  0  0  0  0  0  0  0  0  0  0  0
   -2.0536   -0.8020    0.9062 C   0  0  0  0  0  0  0  0  0  0  0  0
   -1.6260    0.5861   -1.1363 C   0  0  0  0  0  0  0  0  0  0  0  0
    0.2033    0.9901    1.0682 O   0  0  0  0  0  0  0  0  0  0  0  0
    3.0036    0.6891    0.4008 H   0  0  0  0  0  0  0  0  0  0  0  0
    3.5002   -0.1001   -1.0896 H   0  0  0  0  0  0  0  0  0  0  0  0
    2.9510   -1.0726    0.2759 H   0  0  0  0  0  0  0  0  0  0  0  0
    1.2140    0.8731   -1.3208 H   0  0  0  0  0  0  0  0  0  0  0  0
    1.2108   -0.8845   -1.5172 H   0  0  0  0  0  0  0  0  0  0  0  0
   -0.9935   -1.4497   -0.8442 H   0  0  0  0  0  0  0  0  0  0  0  0
   -2.1264    0.0830    1.5331 H   0  0  0  0  0  0  0  0  0  0  0  0
   -3.0420   -1.0462    0.5260 H   0  0  0  0  0  0  0  0  0  0  0  0
   -1.7013   -1.6309    1.5161 H   0  0  0  0  0  0  0  0  0  0  0  0
   -1.6118    1.5236   -0.5864 H   0  0  0  0  0  0  0  0  0  0  0  0
   -2.6491    0.3693   -1.4323 H   0  0  0  0  0  0  0  0  0  0  0  0
   -1.0246    0.6956   -2.0344 H   0  0  0  0  0  0  0  0  0  0  0  0
    1.0684    1.1962    1.4433 H   0  0  0  0  0  0  0  0  0  0  0  0
  1  2  1  0  0  0  0
  2  3  1  0  0  0  0
  3  4  1  0  0  0  0
  3  5  1  0  0  0  0
  5  6  1  0  0  0  0
  5  7  1  0  0  0  0
  3  8  1  0  0  0  0
  1  9  1  0  0  0  0
  1 10  1  0  0  0  0
  1 11  1  0  0  0  0
  2 12  1  0  0  0  0
  2 13  1  0  0  0  0
  5 14  1  0  0  0  0
  6 15  1  0  0  0  0
  6 16  1  0  0  0  0
  6 17  1  0  0  0  0
  7 18  1  0  0  0  0
  7 19  1  0  0  0  0
  7 20  1  0  0  0  0
  8 21  1  0  0  0  0
M  END
