 xtb: 6.7.1 (edcfbbe)
          04112512203D

 18 17  0     0  0            999 V2000
   -2.5169    0.6211    0.1557 C   0  0  0  0  0  0  0  0  0  0  0  0
   -1.1679    0.7311   -0.5458 C   0  0  0  0  0  0  0  0  0  0  0  0
   -0.0390    0.0200    0.2064 C   0  0  0  0  0  0  0  0  0  0  0  0
    0.0108    0.4068    1.2299 H   0  0  0  0  0  0  0  0  0  0  0  0
   -0.2446   -1.4918    0.2663 C   0  0  0  0  0  0  0  0  0  0  0  0
    1.3067    0.3306   -0.4576 C   0  0  0  0  0  0  0  0  0  0  0  0
    2.3523   -0.1578    0.3596 O   0  0  0  0  0  0  0  0  0  0  0  0
   -3.2610    1.2132   -0.3714 H   0  0  0  0  0  0  0  0  0  0  0  0
   -2.8602   -0.4090    0.1828 H   0  0  0  0  0  0  0  0  0  0  0  0
   -2.4446    0.9889    1.1766 H   0  0  0  0  0  0  0  0  0  0  0  0
   -0.9095    1.7880   -0.6470 H   0  0  0  0  0  0  0  0  0  0  0  0
   -1.2449    0.3120   -1.5516 H   0  0  0  0  0  0  0  0  0  0  0  0
   -0.3923   -1.8934   -0.7342 H   0  0  0  0  0  0  0  0  0  0  0  0
   -1.1061   -1.7434    0.8773 H   0  0  0  0  0  0  0  0  0  0  0  0
    0.6349   -1.9581    0.7034 H   0  0  0  0  0  0  0  0  0  0  0  0
    1.4090    1.4172   -0.5879 H   0  0  0  0  0  0  0  0  0  0  0  0
    1.3422   -0.1435   -1.4480 H   0  0  0  0  0  0  0  0  0  0  0  0
    3.2003    0.0133   -0.0700 H   0  0  0  0  0  0  0  0  0  0  0  0
  1  2  1  0  0  0  0
  2  3  1  0  0  0  0
  3  4  1  0  0  0  0
  3  5  1  0  0  0  0
  3  6  1  0  0  0  0
  6  7  1  0  0  0  0
  1  8  1  0  0  0  0
  1  9  1  0  0  0  0
  1 10  1  0  0  0  0
  2 11  1  0  0  0  0
  2 12  1  0  0  0  0
  5 13  1  0  0  0  0
  5 14  1  0  0  0  0
  5 15  1  0  0  0  0
  6 16  1  0  0  0  0
  6 17  1  0  0  0  0
  7 18  1  0  0  0  0
M  END
