 xtb: 6.7.1 (edcfbbe)
          04112512083D

 17 16  0     0  0            999 V2000
   -2.5944    0.9588   -0.4674 C   0  0  0  0  0  0  0  0  0  0  0  0
   -2.1786   -0.0477    0.5992 C   0  0  0  0  0  0  0  0  0  0  0  0
   -0.8692   -0.7382    0.2466 C   0  0  0  0  0  0  0  0  0  0  0  0
    0.1858    0.2339    0.2951 O   0  0  0  0  0  0  0  0  0  0  0  0
    1.3928   -0.1419   -0.1044 C   0  0  0  0  0  0  0  0  0  0  0  0
    1.6413   -1.2649   -0.4964 O   0  0  0  0  0  0  0  0  0  0  0  0
    2.3824    0.9811   -0.0231 C   0  0  0  0  0  0  0  0  0  0  0  0
   -3.5193    1.4508   -0.1805 H   0  0  0  0  0  0  0  0  0  0  0  0
   -1.8224    1.7137   -0.5910 H   0  0  0  0  0  0  0  0  0  0  0  0
   -2.7480    0.4608   -1.4219 H   0  0  0  0  0  0  0  0  0  0  0  0
   -2.9447   -0.8150    0.7096 H   0  0  0  0  0  0  0  0  0  0  0  0
   -2.0549    0.4593    1.5565 H   0  0  0  0  0  0  0  0  0  0  0  0
   -0.6325   -1.5383    0.9559 H   0  0  0  0  0  0  0  0  0  0  0  0
   -0.8985   -1.1716   -0.7588 H   0  0  0  0  0  0  0  0  0  0  0  0
    2.0107    1.7548    0.6397 H   0  0  0  0  0  0  0  0  0  0  0  0
    2.5171    1.3933   -1.0210 H   0  0  0  0  0  0  0  0  0  0  0  0
    3.3395    0.5973    0.3166 H   0  0  0  0  0  0  0  0  0  0  0  0
  1  2  1  0  0  0  0
  2  3  1  0  0  0  0
  3  4  1  0  0  0  0
  4  5  1  0  0  0  0
  5  6  2  0  0  0  0
  5  7  1  0  0  0  0
  1  8  1  0  0  0  0
  1  9  1  0  0  0  0
  1 10  1  0  0  0  0
  2 11  1  0  0  0  0
  2 12  1  0  0  0  0
  3 13  1  0  0  0  0
  3 14  1  0  0  0  0
  7 15  1  0  0  0  0
  7 16  1  0  0  0  0
  7 17  1  0  0  0  0
M  END
