 xtb: 6.7.1 (edcfbbe)
          04112511133D

 21 21  0     0  0            999 V2000
   -3.2431    1.1810    0.1926 C   0  0  0  0  0  0  0  0  0  0  0  0
   -1.9012    0.7914   -0.3325 C   0  0  0  0  0  0  0  0  0  0  0  0
   -1.6896    0.1933   -1.3643 O   0  0  0  0  0  0  0  0  0  0  0  0
   -0.9242    1.2115    0.4849 O   0  0  0  0  0  0  0  0  0  0  0  0
    0.3930    0.8341    0.2552 C   0  0  0  0  0  0  0  0  0  0  0  0
    1.3411    1.8422    0.1709 C   0  0  0  0  0  0  0  0  0  0  0  0
    2.6712    1.5222   -0.0381 C   0  0  0  0  0  0  0  0  0  0  0  0
    3.0555    0.1979   -0.1823 C   0  0  0  0  0  0  0  0  0  0  0  0
    2.1126   -0.8080   -0.0998 C   0  0  0  0  0  0  0  0  0  0  0  0
    0.7703   -0.5068    0.1310 C   0  0  0  0  0  0  0  0  0  0  0  0
   -0.2188   -1.5983    0.2740 C   0  0  0  0  0  0  0  0  0  0  0  0
   -1.2628   -1.5074    0.8947 O   0  0  0  0  0  0  0  0  0  0  0  0
    0.1550   -2.7189   -0.3190 O   0  0  0  0  0  0  0  0  0  0  0  0
   -3.9570    1.2343   -0.6226 H   0  0  0  0  0  0  0  0  0  0  0  0
   -3.1760    2.1211    0.7303 H   0  0  0  0  0  0  0  0  0  0  0  0
   -3.5527    0.4027    0.8889 H   0  0  0  0  0  0  0  0  0  0  0  0
    1.0180    2.8657    0.2709 H   0  0  0  0  0  0  0  0  0  0  0  0
    3.4043    2.3105   -0.0963 H   0  0  0  0  0  0  0  0  0  0  0  0
    4.0897   -0.0507   -0.3564 H   0  0  0  0  0  0  0  0  0  0  0  0
    2.3978   -1.8428   -0.2010 H   0  0  0  0  0  0  0  0  0  0  0  0
   -0.5018   -3.4344   -0.2121 H   0  0  0  0  0  0  0  0  0  0  0  0
  1  2  1  0  0  0  0
  2  3  2  0  0  0  0
  2  4  1  0  0  0  0
  4  5  1  0  0  0  0
  5  6  4  0  0  0  0
  6  7  4  0  0  0  0
  7  8  4  0  0  0  0
  8  9  4  0  0  0  0
  5 10  4  0  0  0  0
  9 10  4  0  0  0  0
 10 11  1  0  0  0  0
 11 12  2  0  0  0  0
 11 13  1  0  0  0  0
  1 14  1  0  0  0  0
  1 15  1  0  0  0  0
  1 16  1  0  0  0  0
  6 17  1  0  0  0  0
  7 18  1  0  0  0  0
  8 19  1  0  0  0  0
  9 20  1  0  0  0  0
 13 21  1  0  0  0  0
M  END
