 xtb: 6.7.1 (edcfbbe)
          04112512193D

 17 16  0     0  0            999 V2000
   -2.4598    0.2714    0.9717 C   0  0  0  0  0  0  0  0  0  0  0  0
   -1.7691    0.6331   -0.3466 C   0  0  0  0  0  0  0  0  0  0  0  0
   -0.5193   -0.1949   -0.4953 C   0  0  0  0  0  0  0  0  0  0  0  0
   -0.4392   -1.2244   -1.1351 O   0  0  0  0  0  0  0  0  0  0  0  0
    0.4918    0.3215    0.1860 O   0  0  0  0  0  0  0  0  0  0  0  0
    1.7495   -0.3748    0.1780 C   0  0  0  0  0  0  0  0  0  0  0  0
    2.8374    0.6014    0.5832 C   0  0  0  0  0  0  0  0  0  0  0  0
   -3.3711    0.8518    1.0786 H   0  0  0  0  0  0  0  0  0  0  0  0
   -2.7141   -0.7859    0.9868 H   0  0  0  0  0  0  0  0  0  0  0  0
   -1.8040    0.4866    1.8112 H   0  0  0  0  0  0  0  0  0  0  0  0
   -1.4942    1.6868   -0.3416 H   0  0  0  0  0  0  0  0  0  0  0  0
   -2.4273    0.4183   -1.1874 H   0  0  0  0  0  0  0  0  0  0  0  0
    1.6789   -1.2108    0.8812 H   0  0  0  0  0  0  0  0  0  0  0  0
    1.9146   -0.7811   -0.8253 H   0  0  0  0  0  0  0  0  0  0  0  0
    3.7920    0.0863    0.6048 H   0  0  0  0  0  0  0  0  0  0  0  0
    2.8888    1.4211   -0.1276 H   0  0  0  0  0  0  0  0  0  0  0  0
    2.6242    1.0051    1.5684 H   0  0  0  0  0  0  0  0  0  0  0  0
  1  2  1  0  0  0  0
  2  3  1  0  0  0  0
  3  4  2  0  0  0  0
  3  5  1  0  0  0  0
  5  6  1  0  0  0  0
  6  7  1  0  0  0  0
  1  8  1  0  0  0  0
  1  9  1  0  0  0  0
  1 10  1  0  0  0  0
  2 11  1  0  0  0  0
  2 12  1  0  0  0  0
  6 13  1  0  0  0  0
  6 14  1  0  0  0  0
  7 15  1  0  0  0  0
  7 16  1  0  0  0  0
  7 17  1  0  0  0  0
M  END
