 xtb: 6.7.1 (edcfbbe)
          04112512193D

 17 16  0     0  0            999 V2000
   -2.3675    0.2156    1.0718 C   0  0  0  0  0  0  0  0  0  0  0  0
   -1.7984    0.6027   -0.2967 C   0  0  0  0  0  0  0  0  0  0  0  0
   -0.5283   -0.1698   -0.5405 C   0  0  0  0  0  0  0  0  0  0  0  0
   -0.4649   -1.2397   -1.1122 O   0  0  0  0  0  0  0  0  0  0  0  0
    0.5239    0.4425   -0.0198 O   0  0  0  0  0  0  0  0  0  0  0  0
    1.8066   -0.2005   -0.1156 C   0  0  0  0  0  0  0  0  0  0  0  0
    2.7185    0.3891    0.9435 C   0  0  0  0  0  0  0  0  0  0  0  0
   -2.5585   -0.8542    1.1113 H   0  0  0  0  0  0  0  0  0  0  0  0
   -1.6654    0.4762    1.8593 H   0  0  0  0  0  0  0  0  0  0  0  0
   -3.3002    0.7443    1.2428 H   0  0  0  0  0  0  0  0  0  0  0  0
   -1.5726    1.6677   -0.3164 H   0  0  0  0  0  0  0  0  0  0  0  0
   -2.5109    0.3520   -1.0816 H   0  0  0  0  0  0  0  0  0  0  0  0
    1.6656   -1.2782    0.0166 H   0  0  0  0  0  0  0  0  0  0  0  0
    2.1974   -0.0248   -1.1229 H   0  0  0  0  0  0  0  0  0  0  0  0
    3.6997   -0.0674    0.8658 H   0  0  0  0  0  0  0  0  0  0  0  0
    2.8086    1.4615    0.7990 H   0  0  0  0  0  0  0  0  0  0  0  0
    2.3146    0.2015    1.9341 H   0  0  0  0  0  0  0  0  0  0  0  0
  1  2  1  0  0  0  0
  2  3  1  0  0  0  0
  3  4  2  0  0  0  0
  3  5  1  0  0  0  0
  5  6  1  0  0  0  0
  6  7  1  0  0  0  0
  1  8  1  0  0  0  0
  1  9  1  0  0  0  0
  1 10  1  0  0  0  0
  2 11  1  0  0  0  0
  2 12  1  0  0  0  0
  6 13  1  0  0  0  0
  6 14  1  0  0  0  0
  7 15  1  0  0  0  0
  7 16  1  0  0  0  0
  7 17  1  0  0  0  0
M  END
