 xtb: 6.7.1 (edcfbbe)
          04112512213D

 14 13  0     0  0            999 V2000
   -2.7904    0.1760   -0.0245 C   0  0  0  0  0  0  0  0  0  0  0  0
   -1.3838   -0.2133    0.4116 C   0  0  0  0  0  0  0  0  0  0  0  0
   -0.3210    0.4137   -0.5026 C   0  0  0  0  0  0  0  0  0  0  0  0
    1.0497   -0.0750   -0.1049 C   0  0  0  0  0  0  0  0  0  0  0  0
    1.3717   -1.2414   -0.1549 O   0  0  0  0  0  0  0  0  0  0  0  0
    1.9218    0.8290    0.3341 O   0  0  0  0  0  0  0  0  0  0  0  0
   -3.5248   -0.2741    0.6377 H   0  0  0  0  0  0  0  0  0  0  0  0
   -2.9849   -0.1668   -1.0375 H   0  0  0  0  0  0  0  0  0  0  0  0
   -2.9159    1.2555    0.0058 H   0  0  0  0  0  0  0  0  0  0  0  0
   -1.2158    0.1118    1.4403 H   0  0  0  0  0  0  0  0  0  0  0  0
   -1.2681   -1.2983    0.3842 H   0  0  0  0  0  0  0  0  0  0  0  0
   -0.5052    0.0826   -1.5265 H   0  0  0  0  0  0  0  0  0  0  0  0
   -0.3873    1.5005   -0.4632 H   0  0  0  0  0  0  0  0  0  0  0  0
    1.5813    1.7426    0.3407 H   0  0  0  0  0  0  0  0  0  0  0  0
  1  2  1  0  0  0  0
  2  3  1  0  0  0  0
  3  4  1  0  0  0  0
  4  5  2  0  0  0  0
  4  6  1  0  0  0  0
  1  7  1  0  0  0  0
  1  8  1  0  0  0  0
  1  9  1  0  0  0  0
  2 10  1  0  0  0  0
  2 11  1  0  0  0  0
  3 12  1  0  0  0  0
  3 13  1  0  0  0  0
  6 14  1  0  0  0  0
M  END
