 xtb: 6.7.1 (edcfbbe)
          04112511233D

 26 25  0     0  0            999 V2000
   -1.9588   -1.3954    0.3946 C   0  0  0  0  0  0  0  0  0  0  0  0
   -1.4931   -0.0061   -0.0441 C   0  0  0  0  0  0  0  0  0  0  0  0
   -1.6024    0.9667    1.1276 C   0  0  0  0  0  0  0  0  0  0  0  0
   -0.0948   -0.0651   -0.7010 C   0  0  0  0  0  0  0  0  0  0  0  0
    0.1535    1.1751   -1.5607 C   0  0  0  0  0  0  0  0  0  0  0  0
    1.0636   -0.3561    0.2823 C   0  0  0  0  0  0  0  0  0  0  0  0
    2.1096   -1.2493   -0.3887 C   0  0  0  0  0  0  0  0  0  0  0  0
    1.7589    0.8877    0.8375 C   0  0  0  0  0  0  0  0  0  0  0  0
   -1.3251   -1.7912    1.1846 H   0  0  0  0  0  0  0  0  0  0  0  0
   -2.9774   -1.3470    0.7730 H   0  0  0  0  0  0  0  0  0  0  0  0
   -1.9374   -2.0905   -0.4417 H   0  0  0  0  0  0  0  0  0  0  0  0
   -2.1842    0.3369   -0.8241 H   0  0  0  0  0  0  0  0  0  0  0  0
   -1.2945    1.9674    0.8368 H   0  0  0  0  0  0  0  0  0  0  0  0
   -0.9929    0.6377    1.9651 H   0  0  0  0  0  0  0  0  0  0  0  0
   -2.6359    1.0190    1.4641 H   0  0  0  0  0  0  0  0  0  0  0  0
   -0.1359   -0.9176   -1.3905 H   0  0  0  0  0  0  0  0  0  0  0  0
    1.1181    1.1080   -2.0575 H   0  0  0  0  0  0  0  0  0  0  0  0
    0.1333    2.0847   -0.9681 H   0  0  0  0  0  0  0  0  0  0  0  0
   -0.6146    1.2524   -2.3276 H   0  0  0  0  0  0  0  0  0  0  0  0
    0.6534   -0.9145    1.1296 H   0  0  0  0  0  0  0  0  0  0  0  0
    2.5212   -0.7610   -1.2693 H   0  0  0  0  0  0  0  0  0  0  0  0
    2.9276   -1.4576    0.2977 H   0  0  0  0  0  0  0  0  0  0  0  0
    1.6712   -2.1968   -0.6942 H   0  0  0  0  0  0  0  0  0  0  0  0
    2.4710    0.5906    1.6053 H   0  0  0  0  0  0  0  0  0  0  0  0
    1.0518    1.5791    1.2836 H   0  0  0  0  0  0  0  0  0  0  0  0
    2.3071    1.4068    0.0561 H   0  0  0  0  0  0  0  0  0  0  0  0
  1  2  1  0  0  0  0
  2  3  1  0  0  0  0
  2  4  1  0  0  0  0
  4  5  1  0  0  0  0
  4  6  1  0  0  0  0
  6  7  1  0  0  0  0
  6  8  1  0  0  0  0
  1  9  1  0  0  0  0
  1 10  1  0  0  0  0
  1 11  1  0  0  0  0
  2 12  1  0  0  0  0
  3 13  1  0  0  0  0
  3 14  1  0  0  0  0
  3 15  1  0  0  0  0
  4 16  1  0  0  0  0
  5 17  1  0  0  0  0
  5 18  1  0  0  0  0
  5 19  1  0  0  0  0
  6 20  1  0  0  0  0
  7 21  1  0  0  0  0
  7 22  1  0  0  0  0
  7 23  1  0  0  0  0
  8 24  1  0  0  0  0
  8 25  1  0  0  0  0
  8 26  1  0  0  0  0
M  END
