 xtb: 6.7.1 (edcfbbe)
          04072510353D

 16 15  0     0  0            999 V2000
    2.5258   -0.0680    0.0593 C   0  0  0  0  0  0  0  0  0  0  0  0
    1.2654    0.7684   -0.1225 C   0  0  0  0  0  0  0  0  0  0  0  0
    0.0000   -0.0483   -0.0002 C   0  0  0  0  0  0  0  0  0  0  0  0
   -0.0000   -1.2621   -0.0002 O   0  0  0  0  0  0  0  0  0  0  0  0
   -1.2653    0.7684    0.1221 C   0  0  0  0  0  0  0  0  0  0  0  0
   -2.5259   -0.0680   -0.0586 C   0  0  0  0  0  0  0  0  0  0  0  0
    2.5335   -0.8917   -0.6506 H   0  0  0  0  0  0  0  0  0  0  0  0
    3.4122    0.5405   -0.0948 H   0  0  0  0  0  0  0  0  0  0  0  0
    2.5579   -0.4904    1.0609 H   0  0  0  0  0  0  0  0  0  0  0  0
    1.2320    1.5839    0.6008 H   0  0  0  0  0  0  0  0  0  0  0  0
    1.2588    1.2157   -1.1196 H   0  0  0  0  0  0  0  0  0  0  0  0
   -1.2322    1.5835   -0.6017 H   0  0  0  0  0  0  0  0  0  0  0  0
   -1.2583    1.2165    1.1189 H   0  0  0  0  0  0  0  0  0  0  0  0
   -3.4121    0.5407    0.0952 H   0  0  0  0  0  0  0  0  0  0  0  0
   -2.5335   -0.8910    0.6520 H   0  0  0  0  0  0  0  0  0  0  0  0
   -2.5583   -0.4913   -1.0597 H   0  0  0  0  0  0  0  0  0  0  0  0
  1  2  1  0  0  0  0
  2  3  1  0  0  0  0
  3  4  2  0  0  0  0
  3  5  1  0  0  0  0
  5  6  1  0  0  0  0
  1  7  1  0  0  0  0
  1  8  1  0  0  0  0
  1  9  1  0  0  0  0
  2 10  1  0  0  0  0
  2 11  1  0  0  0  0
  5 12  1  0  0  0  0
  5 13  1  0  0  0  0
  6 14  1  0  0  0  0
  6 15  1  0  0  0  0
  6 16  1  0  0  0  0
M  END
