 xtb: 6.7.1 (edcfbbe)
          04112512193D

 17 16  0     0  0            999 V2000
   -2.2400    1.2453   -0.1320 C   0  0  0  0  0  0  0  0  0  0  0  0
   -1.8640   -0.0872    0.5196 C   0  0  0  0  0  0  0  0  0  0  0  0
   -0.5531   -0.5916   -0.0263 C   0  0  0  0  0  0  0  0  0  0  0  0
   -0.4210   -1.5911   -0.7046 O   0  0  0  0  0  0  0  0  0  0  0  0
    0.4586    0.1933    0.3103 O   0  0  0  0  0  0  0  0  0  0  0  0
    1.7679   -0.1587   -0.1664 C   0  0  0  0  0  0  0  0  0  0  0  0
    2.7315    0.9394    0.2397 C   0  0  0  0  0  0  0  0  0  0  0  0
   -1.4713    1.9879    0.0626 H   0  0  0  0  0  0  0  0  0  0  0  0
   -2.3479    1.1248   -1.2073 H   0  0  0  0  0  0  0  0  0  0  0  0
   -3.1829    1.5978    0.2748 H   0  0  0  0  0  0  0  0  0  0  0  0
   -2.6256   -0.8410    0.3230 H   0  0  0  0  0  0  0  0  0  0  0  0
   -1.7539    0.0519    1.5953 H   0  0  0  0  0  0  0  0  0  0  0  0
    2.0449   -1.1236    0.2712 H   0  0  0  0  0  0  0  0  0  0  0  0
    1.7203   -0.2800   -1.2536 H   0  0  0  0  0  0  0  0  0  0  0  0
    3.7313    0.6805   -0.0927 H   0  0  0  0  0  0  0  0  0  0  0  0
    2.4366    1.8815   -0.2125 H   0  0  0  0  0  0  0  0  0  0  0  0
    2.7300    1.0533    1.3196 H   0  0  0  0  0  0  0  0  0  0  0  0
  1  2  1  0  0  0  0
  2  3  1  0  0  0  0
  3  4  2  0  0  0  0
  3  5  1  0  0  0  0
  5  6  1  0  0  0  0
  6  7  1  0  0  0  0
  1  8  1  0  0  0  0
  1  9  1  0  0  0  0
  1 10  1  0  0  0  0
  2 11  1  0  0  0  0
  2 12  1  0  0  0  0
  6 13  1  0  0  0  0
  6 14  1  0  0  0  0
  7 15  1  0  0  0  0
  7 16  1  0  0  0  0
  7 17  1  0  0  0  0
M  END
