 xtb: 6.7.1 (edcfbbe)
          04112511513D

 19 19  0     0  0            999 V2000
    1.5018   -2.4077    0.9940 C   0  0  0  0  0  0  0  0  0  0  0  0
    1.0950   -1.7653   -0.2184 O   0  0  0  0  0  0  0  0  0  0  0  0
    0.7068   -0.4550   -0.0858 C   0  0  0  0  0  0  0  0  0  0  0  0
    1.6600    0.5578    0.0174 C   0  0  0  0  0  0  0  0  0  0  0  0
    1.2805    1.8874    0.1087 C   0  0  0  0  0  0  0  0  0  0  0  0
   -0.0592    2.2212    0.0904 C   0  0  0  0  0  0  0  0  0  0  0  0
   -1.0216    1.2274   -0.0095 C   0  0  0  0  0  0  0  0  0  0  0  0
   -0.6606   -0.1221   -0.0947 C   0  0  0  0  0  0  0  0  0  0  0  0
   -1.7107   -1.1894   -0.1564 C   0  0  0  0  0  0  0  0  0  0  0  0
   -2.8035   -1.0520    0.3502 O   0  0  0  0  0  0  0  0  0  0  0  0
   -1.4100   -2.3087   -0.7914 O   0  0  0  0  0  0  0  0  0  0  0  0
   -2.6806    1.7016   -0.0654 Cl  0  0  0  0  0  0  0  0  0  0  0  0
    3.3419    0.1487   -0.0189 Cl  0  0  0  0  0  0  0  0  0  0  0  0
    0.6441   -2.5297    1.6602 H   0  0  0  0  0  0  0  0  0  0  0  0
    2.2820   -1.8399    1.5004 H   0  0  0  0  0  0  0  0  0  0  0  0
    1.8848   -3.3786    0.6933 H   0  0  0  0  0  0  0  0  0  0  0  0
    2.0340    2.6540    0.1830 H   0  0  0  0  0  0  0  0  0  0  0  0
   -0.3693    3.2505    0.1485 H   0  0  0  0  0  0  0  0  0  0  0  0
   -0.4596   -2.3657   -1.0451 H   0  0  0  0  0  0  0  0  0  0  0  0
  1  2  1  0  0  0  0
  2  3  1  0  0  0  0
  3  4  4  0  0  0  0
  4  5  4  0  0  0  0
  5  6  4  0  0  0  0
  6  7  4  0  0  0  0
  3  8  4  0  0  0  0
  7  8  4  0  0  0  0
  8  9  1  0  0  0  0
  9 10  2  0  0  0  0
  9 11  1  0  0  0  0
  7 12  1  0  0  0  0
  4 13  1  0  0  0  0
  1 14  1  0  0  0  0
  1 15  1  0  0  0  0
  1 16  1  0  0  0  0
  5 17  1  0  0  0  0
  6 18  1  0  0  0  0
 11 19  1  0  0  0  0
M  END
