 xtb: 6.7.1 (edcfbbe)
          04112512193D

 17 16  0     0  0            999 V2000
   -2.1626    1.0538   -0.7446 C   0  0  0  0  0  0  0  0  0  0  0  0
   -1.9050   -0.0398    0.2900 C   0  0  0  0  0  0  0  0  0  0  0  0
   -0.4586   -0.4647    0.3317 C   0  0  0  0  0  0  0  0  0  0  0  0
   -0.0861   -1.6209    0.3423 O   0  0  0  0  0  0  0  0  0  0  0  0
    0.3659    0.5717    0.3867 O   0  0  0  0  0  0  0  0  0  0  0  0
    1.7797    0.3212    0.4277 C   0  0  0  0  0  0  0  0  0  0  0  0
    2.3505    0.1626   -0.9732 C   0  0  0  0  0  0  0  0  0  0  0  0
   -3.2097    1.3402   -0.7203 H   0  0  0  0  0  0  0  0  0  0  0  0
   -1.5524    1.9262   -0.5305 H   0  0  0  0  0  0  0  0  0  0  0  0
   -1.9234    0.6967   -1.7431 H   0  0  0  0  0  0  0  0  0  0  0  0
   -2.5060   -0.9261    0.0863 H   0  0  0  0  0  0  0  0  0  0  0  0
   -2.1591    0.3317    1.2849 H   0  0  0  0  0  0  0  0  0  0  0  0
    2.1980    1.1936    0.9306 H   0  0  0  0  0  0  0  0  0  0  0  0
    1.9578   -0.5817    1.0199 H   0  0  0  0  0  0  0  0  0  0  0  0
    3.4264    0.0363   -0.9111 H   0  0  0  0  0  0  0  0  0  0  0  0
    1.9198   -0.7134   -1.4531 H   0  0  0  0  0  0  0  0  0  0  0  0
    2.1257    1.0413   -1.5716 H   0  0  0  0  0  0  0  0  0  0  0  0
  1  2  1  0  0  0  0
  2  3  1  0  0  0  0
  3  4  2  0  0  0  0
  3  5  1  0  0  0  0
  5  6  1  0  0  0  0
  6  7  1  0  0  0  0
  1  8  1  0  0  0  0
  1  9  1  0  0  0  0
  1 10  1  0  0  0  0
  2 11  1  0  0  0  0
  2 12  1  0  0  0  0
  6 13  1  0  0  0  0
  6 14  1  0  0  0  0
  7 15  1  0  0  0  0
  7 16  1  0  0  0  0
  7 17  1  0  0  0  0
M  END
