 xtb: 6.7.1 (edcfbbe)
          04112510563D

 24 24  0     0  0            999 V2000
    2.7192    0.2707   -1.4752 C   0  0  0  0  0  0  0  0  0  0  0  0
    2.2262    0.9713   -0.2104 C   0  0  0  0  0  0  0  0  0  0  0  0
    1.3319    0.1253    0.7111 C   0  0  0  0  0  0  0  0  0  0  0  0
    1.3742    0.5915    1.7042 H   0  0  0  0  0  0  0  0  0  0  0  0
    1.8607   -1.3072    0.8560 C   0  0  0  0  0  0  0  0  0  0  0  0
   -0.1317    0.0837    0.3261 C   0  0  0  0  0  0  0  0  0  0  0  0
   -1.0448   -0.3561    1.2822 C   0  0  0  0  0  0  0  0  0  0  0  0
   -2.3950   -0.4422    1.0020 C   0  0  0  0  0  0  0  0  0  0  0  0
   -2.8674   -0.0823   -0.2493 C   0  0  0  0  0  0  0  0  0  0  0  0
   -1.9754    0.3693   -1.2041 C   0  0  0  0  0  0  0  0  0  0  0  0
   -0.6217    0.4526   -0.9192 C   0  0  0  0  0  0  0  0  0  0  0  0
    3.4420   -0.5027   -1.2306 H   0  0  0  0  0  0  0  0  0  0  0  0
    1.9043   -0.1902   -2.0263 H   0  0  0  0  0  0  0  0  0  0  0  0
    3.2077    0.9933   -2.1257 H   0  0  0  0  0  0  0  0  0  0  0  0
    3.1035    1.2797    0.3637 H   0  0  0  0  0  0  0  0  0  0  0  0
    1.6849    1.8811   -0.4790 H   0  0  0  0  0  0  0  0  0  0  0  0
    2.9120   -1.2932    1.1332 H   0  0  0  0  0  0  0  0  0  0  0  0
    1.3088   -1.8384    1.6271 H   0  0  0  0  0  0  0  0  0  0  0  0
    1.7478   -1.8539   -0.0761 H   0  0  0  0  0  0  0  0  0  0  0  0
   -0.6906   -0.6285    2.2666 H   0  0  0  0  0  0  0  0  0  0  0  0
   -3.0816   -0.7864    1.7617 H   0  0  0  0  0  0  0  0  0  0  0  0
   -3.9216   -0.1478   -0.4740 H   0  0  0  0  0  0  0  0  0  0  0  0
   -2.3324    0.6617   -2.1810 H   0  0  0  0  0  0  0  0  0  0  0  0
    0.0421    0.8200   -1.6843 H   0  0  0  0  0  0  0  0  0  0  0  0
  1  2  1  0  0  0  0
  2  3  1  0  0  0  0
  3  4  1  0  0  0  0
  3  5  1  0  0  0  0
  3  6  1  0  0  0  0
  6  7  4  0  0  0  0
  7  8  4  0  0  0  0
  8  9  4  0  0  0  0
  9 10  4  0  0  0  0
  6 11  4  0  0  0  0
 10 11  4  0  0  0  0
  1 12  1  0  0  0  0
  1 13  1  0  0  0  0
  1 14  1  0  0  0  0
  2 15  1  0  0  0  0
  2 16  1  0  0  0  0
  5 17  1  0  0  0  0
  5 18  1  0  0  0  0
  5 19  1  0  0  0  0
  7 20  1  0  0  0  0
  8 21  1  0  0  0  0
  9 22  1  0  0  0  0
 10 23  1  0  0  0  0
 11 24  1  0  0  0  0
M  END
