 xtb: 6.7.1 (edcfbbe)
          04112511583D

 20 19  0     0  0            999 V2000
    2.7132    0.2227    0.0930 C   0  0  0  0  0  0  0  0  0  0  0  0
    1.2498    0.0426    0.4819 C   0  0  0  0  0  0  0  0  0  0  0  0
    0.3402    0.1323   -0.7421 C   0  0  0  0  0  0  0  0  0  0  0  0
   -1.1606   -0.0371   -0.4631 C   0  0  0  0  0  0  0  0  0  0  0  0
   -1.7032    1.0604    0.4507 C   0  0  0  0  0  0  0  0  0  0  0  0
   -1.4868   -1.4153    0.1097 C   0  0  0  0  0  0  0  0  0  0  0  0
    3.3530    0.1574    0.9699 H   0  0  0  0  0  0  0  0  0  0  0  0
    3.0179   -0.5473   -0.6127 H   0  0  0  0  0  0  0  0  0  0  0  0
    2.8677    1.1933   -0.3737 H   0  0  0  0  0  0  0  0  0  0  0  0
    1.1275   -0.9288    0.9630 H   0  0  0  0  0  0  0  0  0  0  0  0
    0.9769    0.8145    1.2029 H   0  0  0  0  0  0  0  0  0  0  0  0
    0.4943    1.1038   -1.2194 H   0  0  0  0  0  0  0  0  0  0  0  0
    0.6458   -0.6342   -1.4593 H   0  0  0  0  0  0  0  0  0  0  0  0
   -1.6693    0.0518   -1.4312 H   0  0  0  0  0  0  0  0  0  0  0  0
   -1.4408    2.0435    0.0668 H   0  0  0  0  0  0  0  0  0  0  0  0
   -1.3013    0.9610    1.4558 H   0  0  0  0  0  0  0  0  0  0  0  0
   -2.7871    0.9944    0.5129 H   0  0  0  0  0  0  0  0  0  0  0  0
   -1.0860   -1.5216    1.1145 H   0  0  0  0  0  0  0  0  0  0  0  0
   -2.5644   -1.5548    0.1598 H   0  0  0  0  0  0  0  0  0  0  0  0
   -1.0681   -2.1997   -0.5166 H   0  0  0  0  0  0  0  0  0  0  0  0
  1  2  1  0  0  0  0
  2  3  1  0  0  0  0
  3  4  1  0  0  0  0
  4  5  1  0  0  0  0
  4  6  1  0  0  0  0
  1  7  1  0  0  0  0
  1  8  1  0  0  0  0
  1  9  1  0  0  0  0
  2 10  1  0  0  0  0
  2 11  1  0  0  0  0
  3 12  1  0  0  0  0
  3 13  1  0  0  0  0
  4 14  1  0  0  0  0
  5 15  1  0  0  0  0
  5 16  1  0  0  0  0
  5 17  1  0  0  0  0
  6 18  1  0  0  0  0
  6 19  1  0  0  0  0
  6 20  1  0  0  0  0
M  END
