 xtb: 6.7.1 (edcfbbe)
          04112511203D

 21 20  0     0  0            999 V2000
   -2.4331   -0.2925   -0.8807 C   0  0  0  0  0  0  0  0  0  0  0  0
   -1.7272    0.7455   -0.0147 C   0  0  0  0  0  0  0  0  0  0  0  0
   -0.5788    0.1969    0.8367 C   0  0  0  0  0  0  0  0  0  0  0  0
    0.7808   -0.0761    0.1576 C   0  0  0  0  0  0  0  0  0  0  0  0
    1.2848    1.1405   -0.6201 C   0  0  0  0  0  0  0  0  0  0  0  0
    0.7636   -1.3124   -0.7474 C   0  0  0  0  0  0  0  0  0  0  0  0
    1.7435   -0.2804    1.1993 O   0  0  0  0  0  0  0  0  0  0  0  0
   -3.3282    0.1420   -1.3203 H   0  0  0  0  0  0  0  0  0  0  0  0
   -2.7299   -1.1507   -0.2820 H   0  0  0  0  0  0  0  0  0  0  0  0
   -1.7982   -0.6406   -1.6889 H   0  0  0  0  0  0  0  0  0  0  0  0
   -1.3719    1.5654   -0.6384 H   0  0  0  0  0  0  0  0  0  0  0  0
   -2.4642    1.1626    0.6762 H   0  0  0  0  0  0  0  0  0  0  0  0
   -0.3716    0.9234    1.6280 H   0  0  0  0  0  0  0  0  0  0  0  0
   -0.9133   -0.7253    1.3208 H   0  0  0  0  0  0  0  0  0  0  0  0
    0.6867    1.3076   -1.5092 H   0  0  0  0  0  0  0  0  0  0  0  0
    2.3165    0.9670   -0.9146 H   0  0  0  0  0  0  0  0  0  0  0  0
    1.2537    2.0239    0.0120 H   0  0  0  0  0  0  0  0  0  0  0  0
    1.7891   -1.6044   -0.9651 H   0  0  0  0  0  0  0  0  0  0  0  0
    0.2644   -1.0995   -1.6861 H   0  0  0  0  0  0  0  0  0  0  0  0
    0.2588   -2.1437   -0.2605 H   0  0  0  0  0  0  0  0  0  0  0  0
    1.4944   -1.0641    1.7070 H   0  0  0  0  0  0  0  0  0  0  0  0
  1  2  1  0  0  0  0
  2  3  1  0  0  0  0
  3  4  1  0  0  0  0
  4  5  1  0  0  0  0
  4  6  1  0  0  0  0
  4  7  1  0  0  0  0
  1  8  1  0  0  0  0
  1  9  1  0  0  0  0
  1 10  1  0  0  0  0
  2 11  1  0  0  0  0
  2 12  1  0  0  0  0
  3 13  1  0  0  0  0
  3 14  1  0  0  0  0
  5 15  1  0  0  0  0
  5 16  1  0  0  0  0
  5 17  1  0  0  0  0
  6 18  1  0  0  0  0
  6 19  1  0  0  0  0
  6 20  1  0  0  0  0
  7 21  1  0  0  0  0
M  END
