 xtb: 6.7.1 (edcfbbe)
          04112510483D

 27 27  0     0  0            999 V2000
   -4.3627   -1.8651    0.8239 C   0  0  0  0  0  0  0  0  0  0  0  0
   -2.9042   -1.4290    0.7623 C   0  0  0  0  0  0  0  0  0  0  0  0
   -2.6400   -0.4829   -0.4135 C   0  0  0  0  0  0  0  0  0  0  0  0
   -3.4063    0.2995   -0.4142 H   0  0  0  0  0  0  0  0  0  0  0  0
   -2.6411   -1.1852   -1.7666 C   0  0  0  0  0  0  0  0  0  0  0  0
   -1.3696    0.2434   -0.2166 N   0  0  0  0  0  0  0  0  0  0  0  0
   -0.1797   -0.4748   -0.1379 C   0  0  0  0  0  0  0  0  0  0  0  0
   -0.1508   -1.6887   -0.2258 O   0  0  0  0  0  0  0  0  0  0  0  0
    1.0074    0.3352    0.0554 C   0  0  0  0  0  0  0  0  0  0  0  0
    0.9682    1.6866    0.1537 C   0  0  0  0  0  0  0  0  0  0  0  0
   -0.2602    2.2750    0.0620 N   0  0  0  0  0  0  0  0  0  0  0  0
   -1.4459    1.6139   -0.1203 C   0  0  0  0  0  0  0  0  0  0  0  0
   -2.4921    2.2357   -0.1888 O   0  0  0  0  0  0  0  0  0  0  0  0
    2.1243    2.5946    0.3508 C   0  0  0  0  0  0  0  0  0  0  0  0
    2.6259   -0.6561    0.1600 Br  0  0  0  0  0  0  0  0  0  0  0  0
   -4.5260   -2.4768    1.7069 H   0  0  0  0  0  0  0  0  0  0  0  0
   -5.0169   -0.9981    0.8774 H   0  0  0  0  0  0  0  0  0  0  0  0
   -4.6310   -2.4510   -0.0500 H   0  0  0  0  0  0  0  0  0  0  0  0
   -2.6490   -0.9056    1.6878 H   0  0  0  0  0  0  0  0  0  0  0  0
   -2.2565   -2.3025    0.6799 H   0  0  0  0  0  0  0  0  0  0  0  0
   -1.9019   -1.9816   -1.7843 H   0  0  0  0  0  0  0  0  0  0  0  0
   -3.6223   -1.6093   -1.9512 H   0  0  0  0  0  0  0  0  0  0  0  0
   -2.4175   -0.4735   -2.5584 H   0  0  0  0  0  0  0  0  0  0  0  0
   -0.3311    3.2856    0.1311 H   0  0  0  0  0  0  0  0  0  0  0  0
    2.1899    3.2935   -0.4805 H   0  0  0  0  0  0  0  0  0  0  0  0
    3.0520    2.0351    0.4163 H   0  0  0  0  0  0  0  0  0  0  0  0
    1.9908    3.1685    1.2654 H   0  0  0  0  0  0  0  0  0  0  0  0
  1  2  1  0  0  0  0
  2  3  1  0  0  0  0
  3  4  1  0  0  0  0
  3  5  1  0  0  0  0
  3  6  1  0  0  0  0
  6  7  1  0  0  0  0
  7  8  2  0  0  0  0
  7  9  1  0  0  0  0
  9 10  2  0  0  0  0
 10 11  1  0  0  0  0
  6 12  1  0  0  0  0
 11 12  1  0  0  0  0
 12 13  2  0  0  0  0
 10 14  1  0  0  0  0
  9 15  1  0  0  0  0
  1 16  1  0  0  0  0
  1 17  1  0  0  0  0
  1 18  1  0  0  0  0
  2 19  1  0  0  0  0
  2 20  1  0  0  0  0
  5 21  1  0  0  0  0
  5 22  1  0  0  0  0
  5 23  1  0  0  0  0
 11 24  1  0  0  0  0
 14 25  1  0  0  0  0
 14 26  1  0  0  0  0
 14 27  1  0  0  0  0
M  END
