 xtb: 6.7.1 (edcfbbe)
          04112511493D

 21 20  0     0  0            999 V2000
    1.5601   -0.3283   -1.1140 C   0  0  0  0  0  0  0  0  0  0  0  0
    1.3150   -0.1192    0.3784 C   0  0  0  0  0  0  0  0  0  0  0  0
    2.1031   -0.6500    0.9304 H   0  0  0  0  0  0  0  0  0  0  0  0
   -0.0213   -0.6763    0.9127 C   0  0  0  0  0  0  0  0  0  0  0  0
   -1.3595   -0.3337    0.2295 C   0  0  0  0  0  0  0  0  0  0  0  0
   -1.5436    1.1568   -0.0522 C   0  0  0  0  0  0  0  0  0  0  0  0
   -1.6291   -1.1575   -1.0303 C   0  0  0  0  0  0  0  0  0  0  0  0
    1.5206    1.2347    0.7496 O   0  0  0  0  0  0  0  0  0  0  0  0
    1.4182   -1.3730   -1.3719 H   0  0  0  0  0  0  0  0  0  0  0  0
    0.8899    0.2844   -1.7105 H   0  0  0  0  0  0  0  0  0  0  0  0
    2.5825   -0.0429   -1.3527 H   0  0  0  0  0  0  0  0  0  0  0  0
    0.0701   -1.7641    0.9353 H   0  0  0  0  0  0  0  0  0  0  0  0
   -0.0804   -0.3350    1.9502 H   0  0  0  0  0  0  0  0  0  0  0  0
   -2.1267   -0.6215    0.9602 H   0  0  0  0  0  0  0  0  0  0  0  0
   -2.5776    1.3536   -0.3285 H   0  0  0  0  0  0  0  0  0  0  0  0
   -0.9168    1.4825   -0.8788 H   0  0  0  0  0  0  0  0  0  0  0  0
   -1.3119    1.7449    0.8326 H   0  0  0  0  0  0  0  0  0  0  0  0
   -0.9874   -0.8624   -1.8536 H   0  0  0  0  0  0  0  0  0  0  0  0
   -1.4742   -2.2157   -0.8343 H   0  0  0  0  0  0  0  0  0  0  0  0
   -2.6621   -1.0180   -1.3429 H   0  0  0  0  0  0  0  0  0  0  0  0
    0.9362    1.7947    0.2209 H   0  0  0  0  0  0  0  0  0  0  0  0
  1  2  1  0  0  0  0
  2  3  1  0  0  0  0
  2  4  1  0  0  0  0
  4  5  1  0  0  0  0
  5  6  1  0  0  0  0
  5  7  1  0  0  0  0
  2  8  1  0  0  0  0
  1  9  1  0  0  0  0
  1 10  1  0  0  0  0
  1 11  1  0  0  0  0
  4 12  1  0  0  0  0
  4 13  1  0  0  0  0
  5 14  1  0  0  0  0
  6 15  1  0  0  0  0
  6 16  1  0  0  0  0
  6 17  1  0  0  0  0
  7 18  1  0  0  0  0
  7 19  1  0  0  0  0
  7 20  1  0  0  0  0
  8 21  1  0  0  0  0
M  END
