 xtb: 6.7.1 (edcfbbe)
          04112511573D

 14 13  0     0  0            999 V2000
    2.2579   -0.2499    0.1337 C   0  0  0  0  0  0  0  0  0  0  0  0
    0.9524   -0.2273   -0.3977 O   0  0  0  0  0  0  0  0  0  0  0  0
    0.0889    0.6517    0.2916 C   0  0  0  0  0  0  0  0  0  0  0  0
   -1.3213    0.5310   -0.2831 C   0  0  0  0  0  0  0  0  0  0  0  0
   -1.9819   -0.6724    0.1974 N   0  0  0  0  0  0  0  0  0  0  0  0
    2.8226   -0.9506   -0.4758 H   0  0  0  0  0  0  0  0  0  0  0  0
    2.2517   -0.5868    1.1764 H   0  0  0  0  0  0  0  0  0  0  0  0
    2.7192    0.7434    0.0825 H   0  0  0  0  0  0  0  0  0  0  0  0
    0.0806    0.4035    1.3635 H   0  0  0  0  0  0  0  0  0  0  0  0
    0.4497    1.6860    0.1783 H   0  0  0  0  0  0  0  0  0  0  0  0
   -1.8687    1.4563   -0.0351 H   0  0  0  0  0  0  0  0  0  0  0  0
   -1.2361    0.4577   -1.3694 H   0  0  0  0  0  0  0  0  0  0  0  0
   -2.8893   -0.7638   -0.2435 H   0  0  0  0  0  0  0  0  0  0  0  0
   -2.1273   -0.6096    1.1993 H   0  0  0  0  0  0  0  0  0  0  0  0
  1  2  1  0  0  0  0
  2  3  1  0  0  0  0
  3  4  1  0  0  0  0
  4  5  1  0  0  0  0
  1  6  1  0  0  0  0
  1  7  1  0  0  0  0
  1  8  1  0  0  0  0
  3  9  1  0  0  0  0
  3 10  1  0  0  0  0
  4 11  1  0  0  0  0
  4 12  1  0  0  0  0
  5 13  1  0  0  0  0
  5 14  1  0  0  0  0
M  END
