 xtb: 6.7.1 (edcfbbe)
          04112512153D

 21 20  0     0  0            999 V2000
    1.7608   -0.8748    1.1959 C   0  0  0  0  0  0  0  0  0  0  0  0
    1.4877   -0.2573   -0.1699 C   0  0  0  0  0  0  0  0  0  0  0  0
    0.3057    0.7213   -0.2096 C   0  0  0  0  0  0  0  0  0  0  0  0
    0.4689    1.4932    0.5629 H   0  0  0  0  0  0  0  0  0  0  0  0
   -1.1050    0.1329    0.0080 C   0  0  0  0  0  0  0  0  0  0  0  0
   -1.3100   -1.1980   -0.7109 C   0  0  0  0  0  0  0  0  0  0  0  0
   -1.4886    0.0263    1.4819 C   0  0  0  0  0  0  0  0  0  0  0  0
    0.2535    1.3588   -1.4819 O   0  0  0  0  0  0  0  0  0  0  0  0
    1.0040   -1.6072    1.4590 H   0  0  0  0  0  0  0  0  0  0  0  0
    1.7837   -0.1061    1.9648 H   0  0  0  0  0  0  0  0  0  0  0  0
    2.7245   -1.3783    1.1835 H   0  0  0  0  0  0  0  0  0  0  0  0
    2.3758    0.3057   -0.4732 H   0  0  0  0  0  0  0  0  0  0  0  0
    1.3308   -1.0395   -0.9129 H   0  0  0  0  0  0  0  0  0  0  0  0
   -1.7736    0.8670   -0.4587 H   0  0  0  0  0  0  0  0  0  0  0  0
   -1.0124   -1.1086   -1.7528 H   0  0  0  0  0  0  0  0  0  0  0  0
   -0.7343   -1.9911   -0.2415 H   0  0  0  0  0  0  0  0  0  0  0  0
   -2.3612   -1.4742   -0.6770 H   0  0  0  0  0  0  0  0  0  0  0  0
   -0.9024   -0.7311    1.9918 H   0  0  0  0  0  0  0  0  0  0  0  0
   -2.5386   -0.2442    1.5639 H   0  0  0  0  0  0  0  0  0  0  0  0
   -1.3406    0.9774    1.9878 H   0  0  0  0  0  0  0  0  0  0  0  0
    1.1172    1.7413   -1.6863 H   0  0  0  0  0  0  0  0  0  0  0  0
  1  2  1  0  0  0  0
  2  3  1  0  0  0  0
  3  4  1  0  0  0  0
  3  5  1  0  0  0  0
  5  6  1  0  0  0  0
  5  7  1  0  0  0  0
  3  8  1  0  0  0  0
  1  9  1  0  0  0  0
  1 10  1  0  0  0  0
  1 11  1  0  0  0  0
  2 12  1  0  0  0  0
  2 13  1  0  0  0  0
  5 14  1  0  0  0  0
  6 15  1  0  0  0  0
  6 16  1  0  0  0  0
  6 17  1  0  0  0  0
  7 18  1  0  0  0  0
  7 19  1  0  0  0  0
  7 20  1  0  0  0  0
  8 21  1  0  0  0  0
M  END
