 xtb: 6.7.1 (edcfbbe)
          04112511193D

 14 13  0     0  0            999 V2000
   -1.3267    0.3073   -0.0088 C   0  0  0  0  0  0  0  0  0  0  0  0
    0.1521    0.6603    0.2360 C   0  0  0  0  0  0  0  0  0  0  0  0
    1.0929   -0.3045   -0.5061 C   0  0  0  0  0  0  0  0  0  0  0  0
    1.2453   -1.4594    0.2891 O   0  0  0  0  0  0  0  0  0  0  0  0
    0.4051    2.0062   -0.0892 O   0  0  0  0  0  0  0  0  0  0  0  0
   -1.6080   -1.0652    0.1018 O   0  0  0  0  0  0  0  0  0  0  0  0
   -1.6002    0.5792   -1.0334 H   0  0  0  0  0  0  0  0  0  0  0  0
   -1.9501    0.8921    0.6823 H   0  0  0  0  0  0  0  0  0  0  0  0
    0.3808    0.5729    1.3047 H   0  0  0  0  0  0  0  0  0  0  0  0
    2.0588    0.1997   -0.6450 H   0  0  0  0  0  0  0  0  0  0  0  0
    0.6691   -0.5596   -1.4857 H   0  0  0  0  0  0  0  0  0  0  0  0
    1.7749   -2.1118   -0.1885 H   0  0  0  0  0  0  0  0  0  0  0  0
    0.1875    2.1624   -1.0196 H   0  0  0  0  0  0  0  0  0  0  0  0
   -1.2201   -1.4075    0.9194 H   0  0  0  0  0  0  0  0  0  0  0  0
  1  2  1  0  0  0  0
  2  3  1  0  0  0  0
  3  4  1  0  0  0  0
  2  5  1  0  0  0  0
  1  6  1  0  0  0  0
  1  7  1  0  0  0  0
  1  8  1  0  0  0  0
  2  9  1  0  0  0  0
  3 10  1  0  0  0  0
  3 11  1  0  0  0  0
  4 12  1  0  0  0  0
  5 13  1  0  0  0  0
  6 14  1  0  0  0  0
M  END
