 xtb: 6.7.1 (edcfbbe)
          04112511403D

 21 21  0     0  0            999 V2000
   -2.9275    1.4360   -0.0040 C   0  0  0  0  0  0  0  0  0  0  0  0
   -2.5854    0.0611    0.0013 O   0  0  0  0  0  0  0  0  0  0  0  0
   -1.2776   -0.3377    0.0007 C   0  0  0  0  0  0  0  0  0  0  0  0
   -1.1018   -1.7240   -0.0006 C   0  0  0  0  0  0  0  0  0  0  0  0
    0.1547   -2.2840   -0.0009 C   0  0  0  0  0  0  0  0  0  0  0  0
    1.2826   -1.4778   -0.0005 C   0  0  0  0  0  0  0  0  0  0  0  0
    1.1268   -0.1042    0.0007 C   0  0  0  0  0  0  0  0  0  0  0  0
   -0.1506    0.4840    0.0016 C   0  0  0  0  0  0  0  0  0  0  0  0
   -0.2397    1.8531    0.0036 O   0  0  0  0  0  0  0  0  0  0  0  0
    2.1564    0.8105    0.0011 O   0  0  0  0  0  0  0  0  0  0  0  0
    3.4846    0.3269   -0.0027 C   0  0  0  0  0  0  0  0  0  0  0  0
   -2.5499    1.9437    0.8849 H   0  0  0  0  0  0  0  0  0  0  0  0
   -4.0157    1.4503   -0.0048 H   0  0  0  0  0  0  0  0  0  0  0  0
   -2.5487    1.9370   -0.8961 H   0  0  0  0  0  0  0  0  0  0  0  0
   -1.9903   -2.3334   -0.0012 H   0  0  0  0  0  0  0  0  0  0  0  0
    0.2654   -3.3561   -0.0018 H   0  0  0  0  0  0  0  0  0  0  0  0
    2.2622   -1.9243   -0.0010 H   0  0  0  0  0  0  0  0  0  0  0  0
    0.6631    2.2115    0.0037 H   0  0  0  0  0  0  0  0  0  0  0  0
    4.1115    1.2157   -0.0034 H   0  0  0  0  0  0  0  0  0  0  0  0
    3.6843   -0.2664   -0.8982 H   0  0  0  0  0  0  0  0  0  0  0  0
    3.6889   -0.2681    0.8906 H   0  0  0  0  0  0  0  0  0  0  0  0
  1  2  1  0  0  0  0
  2  3  1  0  0  0  0
  3  4  4  0  0  0  0
  4  5  4  0  0  0  0
  5  6  4  0  0  0  0
  6  7  4  0  0  0  0
  3  8  4  0  0  0  0
  7  8  4  0  0  0  0
  8  9  1  0  0  0  0
  7 10  1  0  0  0  0
 10 11  1  0  0  0  0
  1 12  1  0  0  0  0
  1 13  1  0  0  0  0
  1 14  1  0  0  0  0
  4 15  1  0  0  0  0
  5 16  1  0  0  0  0
  6 17  1  0  0  0  0
  9 18  1  0  0  0  0
 11 19  1  0  0  0  0
 11 20  1  0  0  0  0
 11 21  1  0  0  0  0
M  END
