 xtb: 6.7.1 (edcfbbe)
          04112511193D

 14 13  0     0  0            999 V2000
   -1.4453    0.3776   -0.2679 C   0  0  0  0  0  0  0  0  0  0  0  0
   -0.0164    0.3281    0.2967 C   0  0  0  0  0  0  0  0  0  0  0  0
    0.8331   -0.7736   -0.3546 C   0  0  0  0  0  0  0  0  0  0  0  0
    2.1657   -0.7275    0.1059 O   0  0  0  0  0  0  0  0  0  0  0  0
    0.5683    1.5929    0.0698 O   0  0  0  0  0  0  0  0  0  0  0  0
   -2.2361   -0.7199    0.1161 O   0  0  0  0  0  0  0  0  0  0  0  0
   -1.3988    0.4820   -1.3573 H   0  0  0  0  0  0  0  0  0  0  0  0
   -1.9312    1.2668    0.1409 H   0  0  0  0  0  0  0  0  0  0  0  0
   -0.0811    0.1425    1.3826 H   0  0  0  0  0  0  0  0  0  0  0  0
    0.8882   -0.5979   -1.4321 H   0  0  0  0  0  0  0  0  0  0  0  0
    0.3872   -1.7557   -0.1682 H   0  0  0  0  0  0  0  0  0  0  0  0
    2.2016   -1.0242    1.0262 H   0  0  0  0  0  0  0  0  0  0  0  0
    1.5327    1.4781    0.0766 H   0  0  0  0  0  0  0  0  0  0  0  0
   -2.0096   -1.4928   -0.4180 H   0  0  0  0  0  0  0  0  0  0  0  0
  1  2  1  0  0  0  0
  2  3  1  0  0  0  0
  3  4  1  0  0  0  0
  2  5  1  0  0  0  0
  1  6  1  0  0  0  0
  1  7  1  0  0  0  0
  1  8  1  0  0  0  0
  2  9  1  0  0  0  0
  3 10  1  0  0  0  0
  3 11  1  0  0  0  0
  4 12  1  0  0  0  0
  5 13  1  0  0  0  0
  6 14  1  0  0  0  0
M  END
