 xtb: 6.7.1 (edcfbbe)
          04112511103D

 18 17  0     0  0            999 V2000
    2.8322   -0.3465    0.1310 C   0  0  0  0  0  0  0  0  0  0  0  0
    1.4320   -0.5052   -0.4513 C   0  0  0  0  0  0  0  0  0  0  0  0
    0.4069    0.3074    0.3357 C   0  0  0  0  0  0  0  0  0  0  0  0
   -1.0004    0.2759   -0.2761 C   0  0  0  0  0  0  0  0  0  0  0  0
   -0.9403    0.5615   -1.3330 H   0  0  0  0  0  0  0  0  0  0  0  0
   -1.6564   -1.0989   -0.1571 C   0  0  0  0  0  0  0  0  0  0  0  0
   -1.8193    1.2804    0.3039 O   0  0  0  0  0  0  0  0  0  0  0  0
    3.1403    0.6962    0.1048 H   0  0  0  0  0  0  0  0  0  0  0  0
    3.5498   -0.9315   -0.4385 H   0  0  0  0  0  0  0  0  0  0  0  0
    2.8552   -0.6846    1.1644 H   0  0  0  0  0  0  0  0  0  0  0  0
    1.4312   -0.1739   -1.4920 H   0  0  0  0  0  0  0  0  0  0  0  0
    1.1568   -1.5607   -0.4362 H   0  0  0  0  0  0  0  0  0  0  0  0
    0.3600   -0.0633    1.3630 H   0  0  0  0  0  0  0  0  0  0  0  0
    0.7292    1.3512    0.3707 H   0  0  0  0  0  0  0  0  0  0  0  0
   -1.1249   -1.8251   -0.7634 H   0  0  0  0  0  0  0  0  0  0  0  0
   -1.6525   -1.4331    0.8784 H   0  0  0  0  0  0  0  0  0  0  0  0
   -2.6853   -1.0425   -0.5045 H   0  0  0  0  0  0  0  0  0  0  0  0
   -1.9444    1.0742    1.2410 H   0  0  0  0  0  0  0  0  0  0  0  0
  1  2  1  0  0  0  0
  2  3  1  0  0  0  0
  3  4  1  0  0  0  0
  4  5  1  0  0  0  0
  4  6  1  0  0  0  0
  4  7  1  0  0  0  0
  1  8  1  0  0  0  0
  1  9  1  0  0  0  0
  1 10  1  0  0  0  0
  2 11  1  0  0  0  0
  2 12  1  0  0  0  0
  3 13  1  0  0  0  0
  3 14  1  0  0  0  0
  6 15  1  0  0  0  0
  6 16  1  0  0  0  0
  6 17  1  0  0  0  0
  7 18  1  0  0  0  0
M  END
