 xtb: 6.7.1 (edcfbbe)
          04112512013D

 22 22  0     0  0            999 V2000
    3.1759   -1.1382   -1.4800 C   0  0  0  0  0  0  0  0  0  0  0  0
    3.3040   -1.2262    0.0438 C   0  0  0  0  0  0  0  0  0  0  0  0
    3.3197    0.1497    0.6531 C   0  0  0  0  0  0  0  0  0  0  0  0
    4.3642    0.6593    1.0471 O   0  0  0  0  0  0  0  0  0  0  0  0
    2.1848    0.8965    0.7579 N   0  0  0  0  0  0  0  0  0  0  0  0
    0.8284    0.7380    0.4987 C   0  0  0  0  0  0  0  0  0  0  0  0
    0.0154    1.8465    0.7707 C   0  0  0  0  0  0  0  0  0  0  0  0
   -1.3455    1.8104    0.5579 C   0  0  0  0  0  0  0  0  0  0  0  0
   -1.9418    0.6587    0.0655 C   0  0  0  0  0  0  0  0  0  0  0  0
   -1.1486   -0.4467   -0.2053 C   0  0  0  0  0  0  0  0  0  0  0  0
    0.2208   -0.4151    0.0056 C   0  0  0  0  0  0  0  0  0  0  0  0
   -1.8652   -1.9009   -0.8201 Cl  0  0  0  0  0  0  0  0  0  0  0  0
   -3.6544    0.6063   -0.2049 Cl  0  0  0  0  0  0  0  0  0  0  0  0
    4.0298   -0.6037   -1.8891 H   0  0  0  0  0  0  0  0  0  0  0  0
    2.2712   -0.6145   -1.7761 H   0  0  0  0  0  0  0  0  0  0  0  0
    3.1589   -2.1376   -1.9053 H   0  0  0  0  0  0  0  0  0  0  0  0
    4.2601   -1.6892    0.2945 H   0  0  0  0  0  0  0  0  0  0  0  0
    2.5096   -1.8283    0.4809 H   0  0  0  0  0  0  0  0  0  0  0  0
    2.4020    1.8095    1.1503 H   0  0  0  0  0  0  0  0  0  0  0  0
    0.4585    2.7512    1.1553 H   0  0  0  0  0  0  0  0  0  0  0  0
   -1.9560    2.6717    0.7715 H   0  0  0  0  0  0  0  0  0  0  0  0
    0.7735   -1.3053   -0.2251 H   0  0  0  0  0  0  0  0  0  0  0  0
  1  2  1  0  0  0  0
  2  3  1  0  0  0  0
  3  4  2  0  0  0  0
  3  5  4  0  0  0  0
  5  6  1  0  0  0  0
  6  7  4  0  0  0  0
  7  8  4  0  0  0  0
  8  9  4  0  0  0  0
  9 10  4  0  0  0  0
  6 11  4  0  0  0  0
 10 11  4  0  0  0  0
 10 12  1  0  0  0  0
  9 13  1  0  0  0  0
  1 14  1  0  0  0  0
  1 15  1  0  0  0  0
  1 16  1  0  0  0  0
  2 17  1  0  0  0  0
  2 18  1  0  0  0  0
  5 19  1  0  0  0  0
  7 20  1  0  0  0  0
  8 21  1  0  0  0  0
 11 22  1  0  0  0  0
M  END
