 xtb: 6.7.1 (edcfbbe)
          04112511103D

 18 17  0     0  0            999 V2000
    2.1194   -1.0293   -0.3976 C   0  0  0  0  0  0  0  0  0  0  0  0
    1.7569    0.3712    0.0821 C   0  0  0  0  0  0  0  0  0  0  0  0
    0.3731    0.4567    0.7280 C   0  0  0  0  0  0  0  0  0  0  0  0
   -0.7943    0.2046   -0.2471 C   0  0  0  0  0  0  0  0  0  0  0  0
   -0.4357    0.3365   -1.2805 H   0  0  0  0  0  0  0  0  0  0  0  0
   -1.3798   -1.1965   -0.0987 C   0  0  0  0  0  0  0  0  0  0  0  0
   -1.8676    1.1110   -0.0223 O   0  0  0  0  0  0  0  0  0  0  0  0
    1.4598   -1.3480   -1.2005 H   0  0  0  0  0  0  0  0  0  0  0  0
    2.0430   -1.7428    0.4197 H   0  0  0  0  0  0  0  0  0  0  0  0
    3.1405   -1.0442   -0.7714 H   0  0  0  0  0  0  0  0  0  0  0  0
    2.4961    0.6937    0.8187 H   0  0  0  0  0  0  0  0  0  0  0  0
    1.8073    1.0649   -0.7605 H   0  0  0  0  0  0  0  0  0  0  0  0
    0.3124   -0.2528    1.5547 H   0  0  0  0  0  0  0  0  0  0  0  0
    0.2525    1.4560    1.1532 H   0  0  0  0  0  0  0  0  0  0  0  0
   -1.8050   -1.3028    0.8962 H   0  0  0  0  0  0  0  0  0  0  0  0
   -2.1734   -1.3416   -0.8272 H   0  0  0  0  0  0  0  0  0  0  0  0
   -0.6131   -1.9492   -0.2461 H   0  0  0  0  0  0  0  0  0  0  0  0
   -1.5695    2.0133   -0.1964 H   0  0  0  0  0  0  0  0  0  0  0  0
  1  2  1  0  0  0  0
  2  3  1  0  0  0  0
  3  4  1  0  0  0  0
  4  5  1  0  0  0  0
  4  6  1  0  0  0  0
  4  7  1  0  0  0  0
  1  8  1  0  0  0  0
  1  9  1  0  0  0  0
  1 10  1  0  0  0  0
  2 11  1  0  0  0  0
  2 12  1  0  0  0  0
  3 13  1  0  0  0  0
  3 14  1  0  0  0  0
  6 15  1  0  0  0  0
  6 16  1  0  0  0  0
  6 17  1  0  0  0  0
  7 18  1  0  0  0  0
M  END
