 xtb: 6.7.1 (edcfbbe)
          04112511103D

 18 17  0     0  0            999 V2000
    2.2247    0.7158   -0.1247 C   0  0  0  0  0  0  0  0  0  0  0  0
    1.6480   -0.6947   -0.1884 C   0  0  0  0  0  0  0  0  0  0  0  0
    0.2558   -0.8225    0.4337 C   0  0  0  0  0  0  0  0  0  0  0  0
   -0.8316    0.0085   -0.2705 C   0  0  0  0  0  0  0  0  0  0  0  0
   -0.5413    0.1750   -1.3213 H   0  0  0  0  0  0  0  0  0  0  0  0
   -2.1815   -0.7040   -0.2451 C   0  0  0  0  0  0  0  0  0  0  0  0
   -1.0293    1.2681    0.3568 O   0  0  0  0  0  0  0  0  0  0  0  0
    1.6526    1.4001   -0.7469 H   0  0  0  0  0  0  0  0  0  0  0  0
    3.2494    0.7167   -0.4887 H   0  0  0  0  0  0  0  0  0  0  0  0
    2.2287    1.0816    0.8998 H   0  0  0  0  0  0  0  0  0  0  0  0
    1.6022   -1.0187   -1.2307 H   0  0  0  0  0  0  0  0  0  0  0  0
    2.3195   -1.3756    0.3389 H   0  0  0  0  0  0  0  0  0  0  0  0
   -0.0358   -1.8732    0.4023 H   0  0  0  0  0  0  0  0  0  0  0  0
    0.2869   -0.5207    1.4832 H   0  0  0  0  0  0  0  0  0  0  0  0
   -2.9395   -0.0597   -0.6825 H   0  0  0  0  0  0  0  0  0  0  0  0
   -2.1295   -1.6304   -0.8085 H   0  0  0  0  0  0  0  0  0  0  0  0
   -2.4629   -0.9174    0.7827 H   0  0  0  0  0  0  0  0  0  0  0  0
   -0.1834    1.7310    0.4148 H   0  0  0  0  0  0  0  0  0  0  0  0
  1  2  1  0  0  0  0
  2  3  1  0  0  0  0
  3  4  1  0  0  0  0
  4  5  1  0  0  0  0
  4  6  1  0  0  0  0
  4  7  1  0  0  0  0
  1  8  1  0  0  0  0
  1  9  1  0  0  0  0
  1 10  1  0  0  0  0
  2 11  1  0  0  0  0
  2 12  1  0  0  0  0
  3 13  1  0  0  0  0
  3 14  1  0  0  0  0
  6 15  1  0  0  0  0
  6 16  1  0  0  0  0
  6 17  1  0  0  0  0
  7 18  1  0  0  0  0
M  END
