 xtb: 6.7.1 (edcfbbe)
          04112512193D

 17 16  0     0  0            999 V2000
   -2.3800    0.1551    1.0428 C   0  0  0  0  0  0  0  0  0  0  0  0
   -1.7963    0.5241   -0.3241 C   0  0  0  0  0  0  0  0  0  0  0  0
   -0.4478   -0.1300   -0.4795 C   0  0  0  0  0  0  0  0  0  0  0  0
   -0.2753   -1.3048   -0.7312 O   0  0  0  0  0  0  0  0  0  0  0  0
    0.5387    0.7356   -0.2874 O   0  0  0  0  0  0  0  0  0  0  0  0
    1.8943    0.2594   -0.3377 C   0  0  0  0  0  0  0  0  0  0  0  0
    2.3652   -0.1850    1.0386 C   0  0  0  0  0  0  0  0  0  0  0  0
   -1.7485    0.5371    1.8409 H   0  0  0  0  0  0  0  0  0  0  0  0
   -3.3727    0.5825    1.1461 H   0  0  0  0  0  0  0  0  0  0  0  0
   -2.4494   -0.9259    1.1391 H   0  0  0  0  0  0  0  0  0  0  0  0
   -1.6774    1.6029   -0.4085 H   0  0  0  0  0  0  0  0  0  0  0  0
   -2.4507    0.1538   -1.1130 H   0  0  0  0  0  0  0  0  0  0  0  0
    1.9460   -0.5692   -1.0505 H   0  0  0  0  0  0  0  0  0  0  0  0
    2.4740    1.1088   -0.7006 H   0  0  0  0  0  0  0  0  0  0  0  0
    3.4069   -0.4836    0.9833 H   0  0  0  0  0  0  0  0  0  0  0  0
    2.2624    0.6297    1.7503 H   0  0  0  0  0  0  0  0  0  0  0  0
    1.7730   -1.0312    1.3797 H   0  0  0  0  0  0  0  0  0  0  0  0
  1  2  1  0  0  0  0
  2  3  1  0  0  0  0
  3  4  2  0  0  0  0
  3  5  1  0  0  0  0
  5  6  1  0  0  0  0
  6  7  1  0  0  0  0
  1  8  1  0  0  0  0
  1  9  1  0  0  0  0
  1 10  1  0  0  0  0
  2 11  1  0  0  0  0
  2 12  1  0  0  0  0
  6 13  1  0  0  0  0
  6 14  1  0  0  0  0
  7 15  1  0  0  0  0
  7 16  1  0  0  0  0
  7 17  1  0  0  0  0
M  END
