 xtb: 6.7.1 (edcfbbe)
          04112510523D

 12 11  0     0  0            999 V2000
    0.2195   -0.0635   -0.5495 C   0  0  0  0  0  0  0  0  0  0  0  0
    0.1486    0.2135   -1.6098 H   0  0  0  0  0  0  0  0  0  0  0  0
    1.5577    0.4260    0.0229 C   0  0  0  0  0  0  0  0  0  0  0  0
    2.5907   -0.0563   -0.6699 F   0  0  0  0  0  0  0  0  0  0  0  0
    1.7305    0.0758    1.2940 F   0  0  0  0  0  0  0  0  0  0  0  0
    1.6396    1.7586   -0.0371 F   0  0  0  0  0  0  0  0  0  0  0  0
   -0.7712    0.5098    0.2326 O   0  0  0  0  0  0  0  0  0  0  0  0
   -2.0666    0.3658   -0.1816 C   0  0  0  0  0  0  0  0  0  0  0  0
   -2.7425    1.4569    0.2056 F   0  0  0  0  0  0  0  0  0  0  0  0
   -2.6555   -0.6774    0.4472 F   0  0  0  0  0  0  0  0  0  0  0  0
    0.2026   -1.8598   -0.4476 Cl  0  0  0  0  0  0  0  0  0  0  0  0
   -2.1924    0.2248   -1.2674 H   0  0  0  0  0  0  0  0  0  0  0  0
  1  2  1  0  0  0  0
  1  3  1  0  0  0  0
  3  4  1  0  0  0  0
  3  5  1  0  0  0  0
  3  6  1  0  0  0  0
  1  7  1  0  0  0  0
  7  8  1  0  0  0  0
  8  9  1  0  0  0  0
  8 10  1  0  0  0  0
  1 11  1  0  0  0  0
  8 12  1  0  0  0  0
M  END
