 xtb: 6.7.1 (edcfbbe)
          04112511193D

 23 23  0     0  0            999 V2000
   -0.3587    2.3946    0.1631 C   0  0  0  0  0  0  0  0  0  0  0  0
   -0.1121    1.1462   -0.5372 N   0  0  0  0  0  0  0  0  0  0  0  0
   -1.2634    0.4566   -1.0300 C   0  0  0  0  0  0  0  0  0  0  0  0
   -2.0049   -0.3708    0.0463 C   0  0  0  0  0  0  0  0  0  0  0  0
   -3.2398    0.1085    0.3038 F   0  0  0  0  0  0  0  0  0  0  0  0
   -2.1853   -1.6572   -0.3138 F   0  0  0  0  0  0  0  0  0  0  0  0
   -1.3685   -0.3961    1.2252 F   0  0  0  0  0  0  0  0  0  0  0  0
    1.0635    0.4521   -0.2775 C   0  0  0  0  0  0  0  0  0  0  0  0
    1.2122   -0.9058   -0.5789 C   0  0  0  0  0  0  0  0  0  0  0  0
    2.4129   -1.5549   -0.3606 C   0  0  0  0  0  0  0  0  0  0  0  0
    3.4989   -0.8818    0.1692 C   0  0  0  0  0  0  0  0  0  0  0  0
    3.3622    0.4598    0.4811 C   0  0  0  0  0  0  0  0  0  0  0  0
    2.1681    1.1188    0.2648 C   0  0  0  0  0  0  0  0  0  0  0  0
   -0.2059    2.2877    1.2405 H   0  0  0  0  0  0  0  0  0  0  0  0
   -1.3850    2.7072   -0.0087 H   0  0  0  0  0  0  0  0  0  0  0  0
    0.3020    3.1733   -0.2180 H   0  0  0  0  0  0  0  0  0  0  0  0
   -1.9792    1.1819   -1.4247 H   0  0  0  0  0  0  0  0  0  0  0  0
   -0.9865   -0.2237   -1.8388 H   0  0  0  0  0  0  0  0  0  0  0  0
    0.3939   -1.4884   -0.9715 H   0  0  0  0  0  0  0  0  0  0  0  0
    2.4922   -2.6049   -0.6018 H   0  0  0  0  0  0  0  0  0  0  0  0
    4.4322   -1.3950    0.3414 H   0  0  0  0  0  0  0  0  0  0  0  0
    4.1957    1.0037    0.9004 H   0  0  0  0  0  0  0  0  0  0  0  0
    2.1044    2.1629    0.5178 H   0  0  0  0  0  0  0  0  0  0  0  0
  1  2  1  0  0  0  0
  2  3  1  0  0  0  0
  3  4  1  0  0  0  0
  4  5  1  0  0  0  0
  4  6  1  0  0  0  0
  4  7  1  0  0  0  0
  2  8  1  0  0  0  0
  8  9  4  0  0  0  0
  9 10  4  0  0  0  0
 10 11  4  0  0  0  0
 11 12  4  0  0  0  0
  8 13  4  0  0  0  0
 12 13  4  0  0  0  0
  1 14  1  0  0  0  0
  1 15  1  0  0  0  0
  1 16  1  0  0  0  0
  3 17  1  0  0  0  0
  3 18  1  0  0  0  0
  9 19  1  0  0  0  0
 10 20  1  0  0  0  0
 11 21  1  0  0  0  0
 12 22  1  0  0  0  0
 13 23  1  0  0  0  0
M  END
