 xtb: 6.7.1 (edcfbbe)
          04112511493D

 21 20  0     0  0            999 V2000
    1.8862    1.1331    0.0441 C   0  0  0  0  0  0  0  0  0  0  0  0
    1.3858   -0.2472   -0.3837 C   0  0  0  0  0  0  0  0  0  0  0  0
    2.0148   -0.6003   -1.2205 H   0  0  0  0  0  0  0  0  0  0  0  0
   -0.0595   -0.2323   -0.9054 C   0  0  0  0  0  0  0  0  0  0  0  0
   -1.1142    0.4287   -0.0096 C   0  0  0  0  0  0  0  0  0  0  0  0
   -2.4010    0.6349   -0.8091 C   0  0  0  0  0  0  0  0  0  0  0  0
   -1.4039   -0.4070    1.2342 C   0  0  0  0  0  0  0  0  0  0  0  0
    1.4889   -1.1869    0.6752 O   0  0  0  0  0  0  0  0  0  0  0  0
    2.9610    1.1098    0.2110 H   0  0  0  0  0  0  0  0  0  0  0  0
    1.6726    1.8614   -0.7324 H   0  0  0  0  0  0  0  0  0  0  0  0
    1.4005    1.4404    0.9663 H   0  0  0  0  0  0  0  0  0  0  0  0
   -0.0449    0.2844   -1.8672 H   0  0  0  0  0  0  0  0  0  0  0  0
   -0.3520   -1.2693   -1.0845 H   0  0  0  0  0  0  0  0  0  0  0  0
   -0.7505    1.4119    0.3025 H   0  0  0  0  0  0  0  0  0  0  0  0
   -2.7787   -0.3190   -1.1710 H   0  0  0  0  0  0  0  0  0  0  0  0
   -2.2257    1.2826   -1.6650 H   0  0  0  0  0  0  0  0  0  0  0  0
   -3.1648    1.0910   -0.1839 H   0  0  0  0  0  0  0  0  0  0  0  0
   -2.1022    0.1117    1.8875 H   0  0  0  0  0  0  0  0  0  0  0  0
   -1.8406   -1.3622    0.9501 H   0  0  0  0  0  0  0  0  0  0  0  0
   -0.4893   -0.6071    1.7838 H   0  0  0  0  0  0  0  0  0  0  0  0
    2.4020   -1.2065    0.9908 H   0  0  0  0  0  0  0  0  0  0  0  0
  1  2  1  0  0  0  0
  2  3  1  0  0  0  0
  2  4  1  0  0  0  0
  4  5  1  0  0  0  0
  5  6  1  0  0  0  0
  5  7  1  0  0  0  0
  2  8  1  0  0  0  0
  1  9  1  0  0  0  0
  1 10  1  0  0  0  0
  1 11  1  0  0  0  0
  4 12  1  0  0  0  0
  4 13  1  0  0  0  0
  5 14  1  0  0  0  0
  6 15  1  0  0  0  0
  6 16  1  0  0  0  0
  6 17  1  0  0  0  0
  7 18  1  0  0  0  0
  7 19  1  0  0  0  0
  7 20  1  0  0  0  0
  8 21  1  0  0  0  0
M  END
