 xtb: 6.7.1 (edcfbbe)
          04112512153D

 21 20  0     0  0            999 V2000
    2.0887   -1.3664   -0.1463 C   0  0  0  0  0  0  0  0  0  0  0  0
    1.6614    0.0825   -0.3389 C   0  0  0  0  0  0  0  0  0  0  0  0
    0.3278    0.4519    0.3285 C   0  0  0  0  0  0  0  0  0  0  0  0
    0.3821    0.2148    1.3975 H   0  0  0  0  0  0  0  0  0  0  0  0
   -0.8819   -0.3040   -0.2886 C   0  0  0  0  0  0  0  0  0  0  0  0
   -1.2663   -1.5000    0.5828 C   0  0  0  0  0  0  0  0  0  0  0  0
   -2.1022    0.6039   -0.4516 C   0  0  0  0  0  0  0  0  0  0  0  0
    0.1730    1.8614    0.3100 O   0  0  0  0  0  0  0  0  0  0  0  0
    2.1186   -1.6180    0.9112 H   0  0  0  0  0  0  0  0  0  0  0  0
    3.0828   -1.5138   -0.5615 H   0  0  0  0  0  0  0  0  0  0  0  0
    1.4073   -2.0463   -0.6499 H   0  0  0  0  0  0  0  0  0  0  0  0
    2.4258    0.7394    0.0842 H   0  0  0  0  0  0  0  0  0  0  0  0
    1.5892    0.3004   -1.4083 H   0  0  0  0  0  0  0  0  0  0  0  0
   -0.5930   -0.6694   -1.2804 H   0  0  0  0  0  0  0  0  0  0  0  0
   -0.4165   -2.1516    0.7608 H   0  0  0  0  0  0  0  0  0  0  0  0
   -1.6407   -1.1539    1.5439 H   0  0  0  0  0  0  0  0  0  0  0  0
   -2.0491   -2.0798    0.0990 H   0  0  0  0  0  0  0  0  0  0  0  0
   -2.3376    1.0899    0.4924 H   0  0  0  0  0  0  0  0  0  0  0  0
   -2.9592    0.0123   -0.7640 H   0  0  0  0  0  0  0  0  0  0  0  0
   -1.9317    1.3743   -1.1986 H   0  0  0  0  0  0  0  0  0  0  0  0
    0.2318    2.1694   -0.6045 H   0  0  0  0  0  0  0  0  0  0  0  0
  1  2  1  0  0  0  0
  2  3  1  0  0  0  0
  3  4  1  0  0  0  0
  3  5  1  0  0  0  0
  5  6  1  0  0  0  0
  5  7  1  0  0  0  0
  3  8  1  0  0  0  0
  1  9  1  0  0  0  0
  1 10  1  0  0  0  0
  1 11  1  0  0  0  0
  2 12  1  0  0  0  0
  2 13  1  0  0  0  0
  5 14  1  0  0  0  0
  6 15  1  0  0  0  0
  6 16  1  0  0  0  0
  6 17  1  0  0  0  0
  7 18  1  0  0  0  0
  7 19  1  0  0  0  0
  7 20  1  0  0  0  0
  8 21  1  0  0  0  0
M  END
