 xtb: 6.7.1 (edcfbbe)
          04112511563D

 21 21  0     0  0            999 V2000
   -3.1484    1.0958   -0.5153 C   0  0  0  0  0  0  0  0  0  0  0  0
   -2.4657   -0.2687   -0.5124 C   0  0  0  0  0  0  0  0  0  0  0  0
   -1.5031   -0.4567    0.6719 C   0  0  0  0  0  0  0  0  0  0  0  0
   -0.0473   -0.2552    0.3439 C   0  0  0  0  0  0  0  0  0  0  0  0
    0.9088   -1.0721    0.9382 C   0  0  0  0  0  0  0  0  0  0  0  0
    2.2565   -0.9041    0.6752 C   0  0  0  0  0  0  0  0  0  0  0  0
    2.6752    0.0875   -0.1952 C   0  0  0  0  0  0  0  0  0  0  0  0
    1.7346    0.9068   -0.7946 C   0  0  0  0  0  0  0  0  0  0  0  0
    0.3875    0.7382   -0.5253 C   0  0  0  0  0  0  0  0  0  0  0  0
   -3.7906    1.1957   -1.3876 H   0  0  0  0  0  0  0  0  0  0  0  0
   -3.7621    1.2125    0.3755 H   0  0  0  0  0  0  0  0  0  0  0  0
   -2.4208    1.9033   -0.5314 H   0  0  0  0  0  0  0  0  0  0  0  0
   -1.9228   -0.4132   -1.4485 H   0  0  0  0  0  0  0  0  0  0  0  0
   -3.2401   -1.0369   -0.4658 H   0  0  0  0  0  0  0  0  0  0  0  0
   -1.6198   -1.4625    1.0800 H   0  0  0  0  0  0  0  0  0  0  0  0
   -1.7778    0.2431    1.4667 H   0  0  0  0  0  0  0  0  0  0  0  0
    0.5926   -1.8518    1.6170 H   0  0  0  0  0  0  0  0  0  0  0  0
    2.9812   -1.5507    1.1482 H   0  0  0  0  0  0  0  0  0  0  0  0
    3.7261    0.2200   -0.4052 H   0  0  0  0  0  0  0  0  0  0  0  0
    2.0509    1.6837   -1.4754 H   0  0  0  0  0  0  0  0  0  0  0  0
   -0.3273    1.3896   -1.0031 H   0  0  0  0  0  0  0  0  0  0  0  0
  1  2  1  0  0  0  0
  2  3  1  0  0  0  0
  3  4  1  0  0  0  0
  4  5  4  0  0  0  0
  5  6  4  0  0  0  0
  6  7  4  0  0  0  0
  7  8  4  0  0  0  0
  4  9  4  0  0  0  0
  8  9  4  0  0  0  0
  1 10  1  0  0  0  0
  1 11  1  0  0  0  0
  1 12  1  0  0  0  0
  2 13  1  0  0  0  0
  2 14  1  0  0  0  0
  3 15  1  0  0  0  0
  3 16  1  0  0  0  0
  5 17  1  0  0  0  0
  6 18  1  0  0  0  0
  7 19  1  0  0  0  0
  8 20  1  0  0  0  0
  9 21  1  0  0  0  0
M  END
