 xtb: 6.7.1 (edcfbbe)
          04112511563D

 21 21  0     0  0            999 V2000
   -3.7482   -0.1119   -0.4110 C   0  0  0  0  0  0  0  0  0  0  0  0
   -2.2440   -0.1718   -0.6453 C   0  0  0  0  0  0  0  0  0  0  0  0
   -1.4578    0.1614    0.6290 C   0  0  0  0  0  0  0  0  0  0  0  0
    0.0194    0.0963    0.3704 C   0  0  0  0  0  0  0  0  0  0  0  0
    0.7147   -1.0961    0.5290 C   0  0  0  0  0  0  0  0  0  0  0  0
    2.0683   -1.1682    0.2514 C   0  0  0  0  0  0  0  0  0  0  0  0
    2.7469   -0.0459   -0.1926 C   0  0  0  0  0  0  0  0  0  0  0  0
    2.0637    1.1472   -0.3564 C   0  0  0  0  0  0  0  0  0  0  0  0
    0.7101    1.2155   -0.0777 C   0  0  0  0  0  0  0  0  0  0  0  0
   -4.0430   -0.8231    0.3573 H   0  0  0  0  0  0  0  0  0  0  0  0
   -4.0443    0.8836   -0.0879 H   0  0  0  0  0  0  0  0  0  0  0  0
   -4.2854   -0.3508   -1.3255 H   0  0  0  0  0  0  0  0  0  0  0  0
   -1.9652    0.5343   -1.4307 H   0  0  0  0  0  0  0  0  0  0  0  0
   -1.9638   -1.1711   -0.9856 H   0  0  0  0  0  0  0  0  0  0  0  0
   -1.7303   -0.5496    1.4114 H   0  0  0  0  0  0  0  0  0  0  0  0
   -1.7328    1.1631    0.9651 H   0  0  0  0  0  0  0  0  0  0  0  0
    0.1903   -1.9748    0.8766 H   0  0  0  0  0  0  0  0  0  0  0  0
    2.5956   -2.1018    0.3823 H   0  0  0  0  0  0  0  0  0  0  0  0
    3.8035   -0.1005   -0.4085 H   0  0  0  0  0  0  0  0  0  0  0  0
    2.5873    2.0267   -0.7014 H   0  0  0  0  0  0  0  0  0  0  0  0
    0.1820    2.1496   -0.2060 H   0  0  0  0  0  0  0  0  0  0  0  0
  1  2  1  0  0  0  0
  2  3  1  0  0  0  0
  3  4  1  0  0  0  0
  4  5  4  0  0  0  0
  5  6  4  0  0  0  0
  6  7  4  0  0  0  0
  7  8  4  0  0  0  0
  4  9  4  0  0  0  0
  8  9  4  0  0  0  0
  1 10  1  0  0  0  0
  1 11  1  0  0  0  0
  1 12  1  0  0  0  0
  2 13  1  0  0  0  0
  2 14  1  0  0  0  0
  3 15  1  0  0  0  0
  3 16  1  0  0  0  0
  5 17  1  0  0  0  0
  6 18  1  0  0  0  0
  7 19  1  0  0  0  0
  8 20  1  0  0  0  0
  9 21  1  0  0  0  0
M  END
