 xtb: 6.7.1 (edcfbbe)
          04112511583D

 18 17  0     0  0            999 V2000
   -1.7584    0.9209   -0.3831 C   0  0  0  0  0  0  0  0  0  0  0  0
   -1.0387    0.2339    0.7718 C   0  0  0  0  0  0  0  0  0  0  0  0
    0.1422   -0.6383    0.3273 C   0  0  0  0  0  0  0  0  0  0  0  0
    1.2051    0.1090   -0.4883 C   0  0  0  0  0  0  0  0  0  0  0  0
    1.8570    1.2504    0.2820 C   0  0  0  0  0  0  0  0  0  0  0  0
   -0.3996   -1.7211   -0.4154 O   0  0  0  0  0  0  0  0  0  0  0  0
   -2.6737    1.3850   -0.0250 H   0  0  0  0  0  0  0  0  0  0  0  0
   -1.1378    1.6917   -0.8319 H   0  0  0  0  0  0  0  0  0  0  0  0
   -2.0151    0.1873   -1.1431 H   0  0  0  0  0  0  0  0  0  0  0  0
   -0.6829    0.9716    1.4908 H   0  0  0  0  0  0  0  0  0  0  0  0
   -1.7418   -0.4259    1.2840 H   0  0  0  0  0  0  0  0  0  0  0  0
    0.6214   -1.0379    1.2391 H   0  0  0  0  0  0  0  0  0  0  0  0
    1.9779   -0.6103   -0.7738 H   0  0  0  0  0  0  0  0  0  0  0  0
    0.7499    0.4840   -1.4057 H   0  0  0  0  0  0  0  0  0  0  0  0
    2.2551    0.8907    1.2284 H   0  0  0  0  0  0  0  0  0  0  0  0
    2.6745    1.6703   -0.2984 H   0  0  0  0  0  0  0  0  0  0  0  0
    1.1430    2.0427    0.4873 H   0  0  0  0  0  0  0  0  0  0  0  0
    0.3193   -2.2839   -0.7312 H   0  0  0  0  0  0  0  0  0  0  0  0
  1  2  1  0  0  0  0
  2  3  1  0  0  0  0
  3  4  1  0  0  0  0
  4  5  1  0  0  0  0
  3  6  1  0  0  0  0
  1  7  1  0  0  0  0
  1  8  1  0  0  0  0
  1  9  1  0  0  0  0
  2 10  1  0  0  0  0
  2 11  1  0  0  0  0
  3 12  1  0  0  0  0
  4 13  1  0  0  0  0
  4 14  1  0  0  0  0
  5 15  1  0  0  0  0
  5 16  1  0  0  0  0
  5 17  1  0  0  0  0
  6 18  1  0  0  0  0
M  END
