 xtb: 6.7.1 (edcfbbe)
          04072508503D

 19 19  0     0  0            999 V2000
   -2.7696    0.0108   -0.3302 C   0  0  0  0  0  0  0  0  0  0  0  0
   -2.1035   -1.1909   -0.1601 C   0  0  0  0  0  0  0  0  0  0  0  0
   -0.7665   -1.1988    0.1972 C   0  0  0  0  0  0  0  0  0  0  0  0
   -0.0777   -0.0081    0.3916 C   0  0  0  0  0  0  0  0  0  0  0  0
   -0.7546    1.1924    0.2158 C   0  0  0  0  0  0  0  0  0  0  0  0
   -2.0915    1.2032   -0.1408 C   0  0  0  0  0  0  0  0  0  0  0  0
    1.3825   -0.0186    0.7400 C   0  0  0  0  0  0  0  0  0  0  0  0
    2.2306   -0.0160   -0.5413 C   0  0  0  0  0  0  0  0  0  0  0  0
    3.6144    0.0679   -0.2866 O   0  0  0  0  0  0  0  0  0  0  0  0
   -3.8129    0.0183   -0.6076 H   0  0  0  0  0  0  0  0  0  0  0  0
   -2.6269   -2.1243   -0.3053 H   0  0  0  0  0  0  0  0  0  0  0  0
   -0.2532   -2.1401    0.3311 H   0  0  0  0  0  0  0  0  0  0  0  0
   -0.2295    2.1250    0.3634 H   0  0  0  0  0  0  0  0  0  0  0  0
   -2.6057    2.1439   -0.2707 H   0  0  0  0  0  0  0  0  0  0  0  0
    1.6412    0.8645    1.3265 H   0  0  0  0  0  0  0  0  0  0  0  0
    1.6208   -0.9088    1.3258 H   0  0  0  0  0  0  0  0  0  0  0  0
    2.0019   -0.9096   -1.1382 H   0  0  0  0  0  0  0  0  0  0  0  0
    1.9902    0.8650   -1.1417 H   0  0  0  0  0  0  0  0  0  0  0  0
    3.8901   -0.7024    0.2300 H   0  0  0  0  0  0  0  0  0  0  0  0
  1  2  4  0  0  0  0
  2  3  4  0  0  0  0
  3  4  4  0  0  0  0
  4  5  4  0  0  0  0
  1  6  4  0  0  0  0
  5  6  4  0  0  0  0
  4  7  1  0  0  0  0
  7  8  1  0  0  0  0
  8  9  1  0  0  0  0
  1 10  1  0  0  0  0
  2 11  1  0  0  0  0
  3 12  1  0  0  0  0
  5 13  1  0  0  0  0
  6 14  1  0  0  0  0
  7 15  1  0  0  0  0
  7 16  1  0  0  0  0
  8 17  1  0  0  0  0
  8 18  1  0  0  0  0
  9 19  1  0  0  0  0
M  END
