 xtb: 6.7.1 (edcfbbe)
          04112511243D

 26 27  0     0  0            999 V2000
    0.0001   -2.5244   -0.0001 C   0  0  0  0  0  0  0  0  0  0  0  0
   -0.0000   -1.1911   -0.0000 C   0  0  0  0  0  0  0  0  0  0  0  0
   -1.2552   -0.4197   -0.0452 C   0  0  0  0  0  0  0  0  0  0  0  0
   -2.3755   -0.8257    0.6757 C   0  0  0  0  0  0  0  0  0  0  0  0
   -3.5514   -0.1005    0.6158 C   0  0  0  0  0  0  0  0  0  0  0  0
   -3.6284    1.0387   -0.1682 C   0  0  0  0  0  0  0  0  0  0  0  0
   -2.5201    1.4515   -0.8895 C   0  0  0  0  0  0  0  0  0  0  0  0
   -1.3416    0.7317   -0.8257 C   0  0  0  0  0  0  0  0  0  0  0  0
    1.2552   -0.4196    0.0452 C   0  0  0  0  0  0  0  0  0  0  0  0
    1.3414    0.7319    0.8254 C   0  0  0  0  0  0  0  0  0  0  0  0
    2.5199    1.4517    0.8893 C   0  0  0  0  0  0  0  0  0  0  0  0
    3.6284    1.0388    0.1683 C   0  0  0  0  0  0  0  0  0  0  0  0
    3.5516   -0.1006   -0.6155 C   0  0  0  0  0  0  0  0  0  0  0  0
    2.3756   -0.8257   -0.6754 C   0  0  0  0  0  0  0  0  0  0  0  0
    0.9142   -3.0899    0.0524 H   0  0  0  0  0  0  0  0  0  0  0  0
   -0.9140   -3.0900   -0.0524 H   0  0  0  0  0  0  0  0  0  0  0  0
   -2.3148   -1.7044    1.3005 H   0  0  0  0  0  0  0  0  0  0  0  0
   -4.4105   -0.4234    1.1851 H   0  0  0  0  0  0  0  0  0  0  0  0
   -4.5470    1.6040   -0.2147 H   0  0  0  0  0  0  0  0  0  0  0  0
   -2.5739    2.3387   -1.5029 H   0  0  0  0  0  0  0  0  0  0  0  0
   -0.4796    1.0543   -1.3920 H   0  0  0  0  0  0  0  0  0  0  0  0
    0.4795    1.0546    1.3917 H   0  0  0  0  0  0  0  0  0  0  0  0
    2.5737    2.3391    1.5025 H   0  0  0  0  0  0  0  0  0  0  0  0
    4.5470    1.6042    0.2147 H   0  0  0  0  0  0  0  0  0  0  0  0
    4.4107   -0.4237   -1.1846 H   0  0  0  0  0  0  0  0  0  0  0  0
    2.3151   -1.7046   -1.3001 H   0  0  0  0  0  0  0  0  0  0  0  0
  1  2  2  0  0  0  0
  2  3  1  0  0  0  0
  3  4  4  0  0  0  0
  4  5  4  0  0  0  0
  5  6  4  0  0  0  0
  6  7  4  0  0  0  0
  3  8  4  0  0  0  0
  7  8  4  0  0  0  0
  2  9  1  0  0  0  0
  9 10  4  0  0  0  0
 10 11  4  0  0  0  0
 11 12  4  0  0  0  0
 12 13  4  0  0  0  0
  9 14  4  0  0  0  0
 13 14  4  0  0  0  0
  1 15  1  0  0  0  0
  1 16  1  0  0  0  0
  4 17  1  0  0  0  0
  5 18  1  0  0  0  0
  6 19  1  0  0  0  0
  7 20  1  0  0  0  0
  8 21  1  0  0  0  0
 10 22  1  0  0  0  0
 11 23  1  0  0  0  0
 12 24  1  0  0  0  0
 13 25  1  0  0  0  0
 14 26  1  0  0  0  0
M  END
