 xtb: 6.7.1 (edcfbbe)
          04112511203D

 21 20  0     0  0            999 V2000
   -2.6042   -0.4372   -0.5777 C   0  0  0  0  0  0  0  0  0  0  0  0
   -1.7008    0.1316    0.5111 C   0  0  0  0  0  0  0  0  0  0  0  0
   -0.4819    0.8824   -0.0438 C   0  0  0  0  0  0  0  0  0  0  0  0
    0.8323    0.0742    0.0030 C   0  0  0  0  0  0  0  0  0  0  0  0
    1.9844    0.9633   -0.4839 C   0  0  0  0  0  0  0  0  0  0  0  0
    0.7606   -1.1878   -0.8575 C   0  0  0  0  0  0  0  0  0  0  0  0
    1.0896   -0.3722    1.3320 O   0  0  0  0  0  0  0  0  0  0  0  0
   -2.9982    0.3652   -1.1981 H   0  0  0  0  0  0  0  0  0  0  0  0
   -3.4432   -0.9660   -0.1308 H   0  0  0  0  0  0  0  0  0  0  0  0
   -2.0641   -1.1301   -1.2162 H   0  0  0  0  0  0  0  0  0  0  0  0
   -2.2936    0.8121    1.1260 H   0  0  0  0  0  0  0  0  0  0  0  0
   -1.3520   -0.6727    1.1626 H   0  0  0  0  0  0  0  0  0  0  0  0
   -0.6677    1.1821   -1.0755 H   0  0  0  0  0  0  0  0  0  0  0  0
   -0.3263    1.7944    0.5381 H   0  0  0  0  0  0  0  0  0  0  0  0
    2.0370    1.8802    0.1000 H   0  0  0  0  0  0  0  0  0  0  0  0
    1.8403    1.2254   -1.5278 H   0  0  0  0  0  0  0  0  0  0  0  0
    2.9276    0.4317   -0.3823 H   0  0  0  0  0  0  0  0  0  0  0  0
    0.4947   -0.9348   -1.8789 H   0  0  0  0  0  0  0  0  0  0  0  0
    0.0276   -1.8757   -0.4475 H   0  0  0  0  0  0  0  0  0  0  0  0
    1.7276   -1.6844   -0.8513 H   0  0  0  0  0  0  0  0  0  0  0  0
    1.2083    0.3977    1.9039 H   0  0  0  0  0  0  0  0  0  0  0  0
  1  2  1  0  0  0  0
  2  3  1  0  0  0  0
  3  4  1  0  0  0  0
  4  5  1  0  0  0  0
  4  6  1  0  0  0  0
  4  7  1  0  0  0  0
  1  8  1  0  0  0  0
  1  9  1  0  0  0  0
  1 10  1  0  0  0  0
  2 11  1  0  0  0  0
  2 12  1  0  0  0  0
  3 13  1  0  0  0  0
  3 14  1  0  0  0  0
  5 15  1  0  0  0  0
  5 16  1  0  0  0  0
  5 17  1  0  0  0  0
  6 18  1  0  0  0  0
  6 19  1  0  0  0  0
  6 20  1  0  0  0  0
  7 21  1  0  0  0  0
M  END
