 xtb: 6.7.1 (edcfbbe)
          04112511573D

 14 13  0     0  0            999 V2000
    1.6082   -0.8368   -0.0378 C   0  0  0  0  0  0  0  0  0  0  0  0
    1.2843    0.5063    0.2575 O   0  0  0  0  0  0  0  0  0  0  0  0
    0.0433    0.9516   -0.2597 C   0  0  0  0  0  0  0  0  0  0  0  0
   -1.1995    0.3148    0.4055 C   0  0  0  0  0  0  0  0  0  0  0  0
   -1.7902   -0.8193   -0.2836 N   0  0  0  0  0  0  0  0  0  0  0  0
    0.9736   -1.5352    0.5163 H   0  0  0  0  0  0  0  0  0  0  0  0
    2.6418   -0.9701    0.2737 H   0  0  0  0  0  0  0  0  0  0  0  0
    1.5214   -1.0320   -1.1126 H   0  0  0  0  0  0  0  0  0  0  0  0
    0.0536    2.0270   -0.0740 H   0  0  0  0  0  0  0  0  0  0  0  0
    0.0122    0.7800   -1.3473 H   0  0  0  0  0  0  0  0  0  0  0  0
   -0.9257    0.0005    1.4160 H   0  0  0  0  0  0  0  0  0  0  0  0
   -1.9765    1.0774    0.4889 H   0  0  0  0  0  0  0  0  0  0  0  0
   -1.1205   -1.5747   -0.3779 H   0  0  0  0  0  0  0  0  0  0  0  0
   -2.0754   -0.5440   -1.2169 H   0  0  0  0  0  0  0  0  0  0  0  0
  1  2  1  0  0  0  0
  2  3  1  0  0  0  0
  3  4  1  0  0  0  0
  4  5  1  0  0  0  0
  1  6  1  0  0  0  0
  1  7  1  0  0  0  0
  1  8  1  0  0  0  0
  3  9  1  0  0  0  0
  3 10  1  0  0  0  0
  4 11  1  0  0  0  0
  4 12  1  0  0  0  0
  5 13  1  0  0  0  0
  5 14  1  0  0  0  0
M  END
