 xtb: 6.7.1 (edcfbbe)
          04112512193D

 17 16  0     0  0            999 V2000
   -2.9655    0.0004    0.2398 C   0  0  0  0  0  0  0  0  0  0  0  0
   -1.6517    0.7675    0.1709 C   0  0  0  0  0  0  0  0  0  0  0  0
   -0.4884   -0.1271   -0.1722 C   0  0  0  0  0  0  0  0  0  0  0  0
   -0.5707   -1.2366   -0.6560 O   0  0  0  0  0  0  0  0  0  0  0  0
    0.6700    0.4576    0.1107 O   0  0  0  0  0  0  0  0  0  0  0  0
    1.8790   -0.2635   -0.1839 C   0  0  0  0  0  0  0  0  0  0  0  0
    3.0338    0.4499    0.4921 C   0  0  0  0  0  0  0  0  0  0  0  0
   -3.1321   -0.5381   -0.6896 H   0  0  0  0  0  0  0  0  0  0  0  0
   -2.9396   -0.7258    1.0482 H   0  0  0  0  0  0  0  0  0  0  0  0
   -3.7908    0.6853    0.4073 H   0  0  0  0  0  0  0  0  0  0  0  0
   -1.4284    1.2704    1.1118 H   0  0  0  0  0  0  0  0  0  0  0  0
   -1.7008    1.5322   -0.6078 H   0  0  0  0  0  0  0  0  0  0  0  0
    1.7655   -1.2916    0.1755 H   0  0  0  0  0  0  0  0  0  0  0  0
    2.0038   -0.2928   -1.2712 H   0  0  0  0  0  0  0  0  0  0  0  0
    2.8827    0.4694    1.5674 H   0  0  0  0  0  0  0  0  0  0  0  0
    3.9581   -0.0726    0.2695 H   0  0  0  0  0  0  0  0  0  0  0  0
    3.1015    1.4712    0.1296 H   0  0  0  0  0  0  0  0  0  0  0  0
  1  2  1  0  0  0  0
  2  3  1  0  0  0  0
  3  4  2  0  0  0  0
  3  5  1  0  0  0  0
  5  6  1  0  0  0  0
  6  7  1  0  0  0  0
  1  8  1  0  0  0  0
  1  9  1  0  0  0  0
  1 10  1  0  0  0  0
  2 11  1  0  0  0  0
  2 12  1  0  0  0  0
  6 13  1  0  0  0  0
  6 14  1  0  0  0  0
  7 15  1  0  0  0  0
  7 16  1  0  0  0  0
  7 17  1  0  0  0  0
M  END
