 xtb: 6.7.1 (edcfbbe)
          04112511223D

 22 21  0     0  0            999 V2000
    1.5486    0.3649    1.5863 C   0  0  0  0  0  0  0  0  0  0  0  0
    1.4019   -0.2703    0.2087 C   0  0  0  0  0  0  0  0  0  0  0  0
    2.3476    0.4063   -0.7940 C   0  0  0  0  0  0  0  0  0  0  0  0
    0.0076   -0.2719   -0.4010 C   0  0  0  0  0  0  0  0  0  0  0  0
   -0.1714   -0.8084   -1.4785 O   0  0  0  0  0  0  0  0  0  0  0  0
   -1.1457    0.3559    0.3559 C   0  0  0  0  0  0  0  0  0  0  0  0
   -1.8105   -0.7659    1.1665 C   0  0  0  0  0  0  0  0  0  0  0  0
   -2.1490    0.9774   -0.6141 C   0  0  0  0  0  0  0  0  0  0  0  0
    0.8835   -0.0922    2.3129 H   0  0  0  0  0  0  0  0  0  0  0  0
    1.3541    1.4337    1.5465 H   0  0  0  0  0  0  0  0  0  0  0  0
    2.5707    0.2254    1.9305 H   0  0  0  0  0  0  0  0  0  0  0  0
    1.6880   -1.3276    0.2706 H   0  0  0  0  0  0  0  0  0  0  0  0
    2.2383   -0.0471   -1.7764 H   0  0  0  0  0  0  0  0  0  0  0  0
    2.1141    1.4659   -0.8733 H   0  0  0  0  0  0  0  0  0  0  0  0
    3.3782    0.2990   -0.4679 H   0  0  0  0  0  0  0  0  0  0  0  0
   -0.7772    1.1219    1.0379 H   0  0  0  0  0  0  0  0  0  0  0  0
   -2.1805   -1.5366    0.4936 H   0  0  0  0  0  0  0  0  0  0  0  0
   -1.1072   -1.2218    1.8583 H   0  0  0  0  0  0  0  0  0  0  0  0
   -2.6468   -0.3635    1.7313 H   0  0  0  0  0  0  0  0  0  0  0  0
   -3.0167    1.3442   -0.0732 H   0  0  0  0  0  0  0  0  0  0  0  0
   -1.6938    1.8057   -1.1525 H   0  0  0  0  0  0  0  0  0  0  0  0
   -2.4718    0.2360   -1.3415 H   0  0  0  0  0  0  0  0  0  0  0  0
  1  2  1  0  0  0  0
  2  3  1  0  0  0  0
  2  4  1  0  0  0  0
  4  5  2  0  0  0  0
  4  6  1  0  0  0  0
  6  7  1  0  0  0  0
  6  8  1  0  0  0  0
  1  9  1  0  0  0  0
  1 10  1  0  0  0  0
  1 11  1  0  0  0  0
  2 12  1  0  0  0  0
  3 13  1  0  0  0  0
  3 14  1  0  0  0  0
  3 15  1  0  0  0  0
  6 16  1  0  0  0  0
  7 17  1  0  0  0  0
  7 18  1  0  0  0  0
  7 19  1  0  0  0  0
  8 20  1  0  0  0  0
  8 21  1  0  0  0  0
  8 22  1  0  0  0  0
M  END
