 xtb: 6.7.1 (edcfbbe)
          04082510373D

 16 15  0     0  0            999 V2000
   -2.7878   -0.2750    0.0110 C   0  0  0  0  0  0  0  0  0  0  0  0
   -1.4314    0.4113   -0.0863 C   0  0  0  0  0  0  0  0  0  0  0  0
   -0.2843   -0.5830    0.0748 C   0  0  0  0  0  0  0  0  0  0  0  0
    1.0748    0.0670    0.0231 C   0  0  0  0  0  0  0  0  0  0  0  0
    1.2291    1.2728    0.0294 O   0  0  0  0  0  0  0  0  0  0  0  0
    2.2304   -0.8908   -0.0474 C   0  0  0  0  0  0  0  0  0  0  0  0
   -3.5881    0.4502   -0.1100 H   0  0  0  0  0  0  0  0  0  0  0  0
   -2.9040   -0.7558    0.9795 H   0  0  0  0  0  0  0  0  0  0  0  0
   -2.8894   -1.0309   -0.7641 H   0  0  0  0  0  0  0  0  0  0  0  0
   -1.3448    1.1803    0.6842 H   0  0  0  0  0  0  0  0  0  0  0  0
   -1.3361    0.9124   -1.0520 H   0  0  0  0  0  0  0  0  0  0  0  0
   -0.3665   -1.0869    1.0414 H   0  0  0  0  0  0  0  0  0  0  0  0
   -0.3331   -1.3540   -0.6961 H   0  0  0  0  0  0  0  0  0  0  0  0
    3.1563   -0.3830    0.2085 H   0  0  0  0  0  0  0  0  0  0  0  0
    2.3073   -1.2571   -1.0695 H   0  0  0  0  0  0  0  0  0  0  0  0
    2.0684   -1.7416    0.6066 H   0  0  0  0  0  0  0  0  0  0  0  0
  1  2  1  0  0  0  0
  2  3  1  0  0  0  0
  3  4  1  0  0  0  0
  4  5  2  0  0  0  0
  4  6  1  0  0  0  0
  1  7  1  0  0  0  0
  1  8  1  0  0  0  0
  1  9  1  0  0  0  0
  2 10  1  0  0  0  0
  2 11  1  0  0  0  0
  3 12  1  0  0  0  0
  3 13  1  0  0  0  0
  6 14  1  0  0  0  0
  6 15  1  0  0  0  0
  6 16  1  0  0  0  0
M  END
