 xtb: 6.7.1 (edcfbbe)
          04112512083D

 17 16  0     0  0            999 V2000
   -2.7150    0.7111    0.7726 C   0  0  0  0  0  0  0  0  0  0  0  0
   -2.1191    0.2282   -0.5447 C   0  0  0  0  0  0  0  0  0  0  0  0
   -0.8921   -0.6467   -0.3228 C   0  0  0  0  0  0  0  0  0  0  0  0
    0.1583    0.1556    0.2375 O   0  0  0  0  0  0  0  0  0  0  0  0
    1.4164   -0.1510   -0.0454 C   0  0  0  0  0  0  0  0  0  0  0  0
    1.7356   -1.0851   -0.7541 O   0  0  0  0  0  0  0  0  0  0  0  0
    2.3787    0.7880    0.6181 C   0  0  0  0  0  0  0  0  0  0  0  0
   -3.5668    1.3588    0.5858 H   0  0  0  0  0  0  0  0  0  0  0  0
   -3.0460   -0.1333    1.3720 H   0  0  0  0  0  0  0  0  0  0  0  0
   -1.9714    1.2661    1.3380 H   0  0  0  0  0  0  0  0  0  0  0  0
   -1.8319    1.0843   -1.1567 H   0  0  0  0  0  0  0  0  0  0  0  0
   -2.8542   -0.3579   -1.0966 H   0  0  0  0  0  0  0  0  0  0  0  0
   -1.1092   -1.4546    0.3830 H   0  0  0  0  0  0  0  0  0  0  0  0
   -0.5312   -1.0847   -1.2591 H   0  0  0  0  0  0  0  0  0  0  0  0
    2.8822    0.2564    1.4224 H   0  0  0  0  0  0  0  0  0  0  0  0
    1.8466    1.6435    1.0191 H   0  0  0  0  0  0  0  0  0  0  0  0
    3.1315    1.0981   -0.1008 H   0  0  0  0  0  0  0  0  0  0  0  0
  1  2  1  0  0  0  0
  2  3  1  0  0  0  0
  3  4  1  0  0  0  0
  4  5  1  0  0  0  0
  5  6  2  0  0  0  0
  5  7  1  0  0  0  0
  1  8  1  0  0  0  0
  1  9  1  0  0  0  0
  1 10  1  0  0  0  0
  2 11  1  0  0  0  0
  2 12  1  0  0  0  0
  3 13  1  0  0  0  0
  3 14  1  0  0  0  0
  7 15  1  0  0  0  0
  7 16  1  0  0  0  0
  7 17  1  0  0  0  0
M  END
