 xtb: 6.7.1 (edcfbbe)
          04112511533D

 26 27  0     0  0            999 V2000
    0.5236    1.9420    0.3371 C   0  0  0  0  0  0  0  0  0  0  0  0
    1.8732    2.2036    0.4112 C   0  0  0  0  0  0  0  0  0  0  0  0
    2.8159    1.1982    0.1885 C   0  0  0  0  0  0  0  0  0  0  0  0
    2.3587   -0.0978   -0.1169 C   0  0  0  0  0  0  0  0  0  0  0  0
    0.9883   -0.3457   -0.1836 C   0  0  0  0  0  0  0  0  0  0  0  0
    0.0598    0.6583    0.0407 C   0  0  0  0  0  0  0  0  0  0  0  0
   -1.3854    0.3935   -0.0385 C   0  0  0  0  0  0  0  0  0  0  0  0
   -2.2398    1.2842   -0.6889 C   0  0  0  0  0  0  0  0  0  0  0  0
   -3.6000    1.0542   -0.7769 C   0  0  0  0  0  0  0  0  0  0  0  0
   -4.1162   -0.0887   -0.1966 C   0  0  0  0  0  0  0  0  0  0  0  0
   -3.3193   -1.0012    0.4671 C   0  0  0  0  0  0  0  0  0  0  0  0
   -1.9644   -0.7390    0.5296 C   0  0  0  0  0  0  0  0  0  0  0  0
   -1.1909   -1.6271    1.2063 F   0  0  0  0  0  0  0  0  0  0  0  0
   -5.4509   -0.3289   -0.2746 F   0  0  0  0  0  0  0  0  0  0  0  0
    3.3113   -1.1957   -0.3573 C   0  0  0  0  0  0  0  0  0  0  0  0
    4.5115   -1.1451   -0.1669 O   0  0  0  0  0  0  0  0  0  0  0  0
    2.7307   -2.3041   -0.8181 O   0  0  0  0  0  0  0  0  0  0  0  0
    4.1323    1.4427    0.2465 O   0  0  0  0  0  0  0  0  0  0  0  0
   -0.1838    2.7327    0.5317 H   0  0  0  0  0  0  0  0  0  0  0  0
    2.2129    3.2004    0.6492 H   0  0  0  0  0  0  0  0  0  0  0  0
    0.6647   -1.3451   -0.4260 H   0  0  0  0  0  0  0  0  0  0  0  0
   -1.8200    2.1634   -1.1494 H   0  0  0  0  0  0  0  0  0  0  0  0
   -4.2549    1.7413   -1.2859 H   0  0  0  0  0  0  0  0  0  0  0  0
   -3.7339   -1.8841    0.9239 H   0  0  0  0  0  0  0  0  0  0  0  0
    3.3834   -3.0160   -0.9577 H   0  0  0  0  0  0  0  0  0  0  0  0
    4.3076    2.3759    0.4566 H   0  0  0  0  0  0  0  0  0  0  0  0
  1  2  4  0  0  0  0
  2  3  4  0  0  0  0
  3  4  4  0  0  0  0
  4  5  4  0  0  0  0
  1  6  4  0  0  0  0
  5  6  4  0  0  0  0
  6  7  1  0  0  0  0
  7  8  4  0  0  0  0
  8  9  4  0  0  0  0
  9 10  4  0  0  0  0
 10 11  4  0  0  0  0
  7 12  4  0  0  0  0
 11 12  4  0  0  0  0
 12 13  1  0  0  0  0
 10 14  1  0  0  0  0
  4 15  1  0  0  0  0
 15 16  2  0  0  0  0
 15 17  1  0  0  0  0
  3 18  1  0  0  0  0
  1 19  1  0  0  0  0
  2 20  1  0  0  0  0
  5 21  1  0  0  0  0
  8 22  1  0  0  0  0
  9 23  1  0  0  0  0
 11 24  1  0  0  0  0
 17 25  1  0  0  0  0
 18 26  1  0  0  0  0
M  END
