 xtb: 6.7.1 (edcfbbe)
          04112512203D

 18 17  0     0  0            999 V2000
   -1.5704    1.4834    0.2771 C   0  0  0  0  0  0  0  0  0  0  0  0
   -1.1347    0.2565   -0.5203 C   0  0  0  0  0  0  0  0  0  0  0  0
   -0.1303   -0.6247    0.2426 C   0  0  0  0  0  0  0  0  0  0  0  0
   -0.2706   -0.4640    1.3163 H   0  0  0  0  0  0  0  0  0  0  0  0
   -0.3530   -2.1040   -0.0675 C   0  0  0  0  0  0  0  0  0  0  0  0
    1.3244   -0.2660   -0.1007 C   0  0  0  0  0  0  0  0  0  0  0  0
    1.6848    1.0679    0.1893 O   0  0  0  0  0  0  0  0  0  0  0  0
   -2.1921    2.1338   -0.3340 H   0  0  0  0  0  0  0  0  0  0  0  0
   -2.1487    1.1773    1.1462 H   0  0  0  0  0  0  0  0  0  0  0  0
   -0.7136    2.0511    0.6303 H   0  0  0  0  0  0  0  0  0  0  0  0
   -0.6990    0.5650   -1.4740 H   0  0  0  0  0  0  0  0  0  0  0  0
   -2.0218   -0.3357   -0.7526 H   0  0  0  0  0  0  0  0  0  0  0  0
    0.3689   -2.7201    0.4630 H   0  0  0  0  0  0  0  0  0  0  0  0
   -0.2429   -2.2869   -1.1342 H   0  0  0  0  0  0  0  0  0  0  0  0
   -1.3517   -2.4073    0.2348 H   0  0  0  0  0  0  0  0  0  0  0  0
    1.5130   -0.4859   -1.1606 H   0  0  0  0  0  0  0  0  0  0  0  0
    2.0011   -0.8803    0.4994 H   0  0  0  0  0  0  0  0  0  0  0  0
    1.2258    1.6537   -0.4277 H   0  0  0  0  0  0  0  0  0  0  0  0
  1  2  1  0  0  0  0
  2  3  1  0  0  0  0
  3  4  1  0  0  0  0
  3  5  1  0  0  0  0
  3  6  1  0  0  0  0
  6  7  1  0  0  0  0
  1  8  1  0  0  0  0
  1  9  1  0  0  0  0
  1 10  1  0  0  0  0
  2 11  1  0  0  0  0
  2 12  1  0  0  0  0
  5 13  1  0  0  0  0
  5 14  1  0  0  0  0
  5 15  1  0  0  0  0
  6 16  1  0  0  0  0
  6 17  1  0  0  0  0
  7 18  1  0  0  0  0
M  END
