 xtb: 6.7.1 (edcfbbe)
          04112512223D

 23 22  0     0  0            999 V2000
   -1.9368    0.1915    1.0511 C   0  0  0  0  0  0  0  0  0  0  0  0
   -1.3310   -0.3859   -0.2290 C   0  0  0  0  0  0  0  0  0  0  0  0
   -1.2812    0.6826   -1.3176 C   0  0  0  0  0  0  0  0  0  0  0  0
    0.0001   -1.1292   -0.0001 C   0  0  0  0  0  0  0  0  0  0  0  0
    1.3310   -0.3858    0.2291 C   0  0  0  0  0  0  0  0  0  0  0  0
    1.9371    0.1914   -1.0509 C   0  0  0  0  0  0  0  0  0  0  0  0
    1.2808    0.6831    1.3174 C   0  0  0  0  0  0  0  0  0  0  0  0
   -2.9667    0.4908    0.8654 H   0  0  0  0  0  0  0  0  0  0  0  0
   -1.9380   -0.5519    1.8450 H   0  0  0  0  0  0  0  0  0  0  0  0
   -1.3922    1.0641    1.3954 H   0  0  0  0  0  0  0  0  0  0  0  0
   -2.0236   -1.1655   -0.5754 H   0  0  0  0  0  0  0  0  0  0  0  0
   -0.8236    0.2911   -2.2223 H   0  0  0  0  0  0  0  0  0  0  0  0
   -2.2916    1.0077   -1.5588 H   0  0  0  0  0  0  0  0  0  0  0  0
   -0.7226    1.5534   -0.9859 H   0  0  0  0  0  0  0  0  0  0  0  0
    0.1577   -1.7824   -0.8633 H   0  0  0  0  0  0  0  0  0  0  0  0
   -0.1575   -1.7828    0.8630 H   0  0  0  0  0  0  0  0  0  0  0  0
    2.0236   -1.1652    0.5759 H   0  0  0  0  0  0  0  0  0  0  0  0
    2.9666    0.4916   -0.8649 H   0  0  0  0  0  0  0  0  0  0  0  0
    1.9393   -0.5525   -1.8444 H   0  0  0  0  0  0  0  0  0  0  0  0
    1.3920    1.0634   -1.3961 H   0  0  0  0  0  0  0  0  0  0  0  0
    0.7222    1.5537    0.9853 H   0  0  0  0  0  0  0  0  0  0  0  0
    0.8231    0.2917    2.2221 H   0  0  0  0  0  0  0  0  0  0  0  0
    2.2911    1.0083    1.5588 H   0  0  0  0  0  0  0  0  0  0  0  0
  1  2  1  0  0  0  0
  2  3  1  0  0  0  0
  2  4  1  0  0  0  0
  4  5  1  0  0  0  0
  5  6  1  0  0  0  0
  5  7  1  0  0  0  0
  1  8  1  0  0  0  0
  1  9  1  0  0  0  0
  1 10  1  0  0  0  0
  2 11  1  0  0  0  0
  3 12  1  0  0  0  0
  3 13  1  0  0  0  0
  3 14  1  0  0  0  0
  4 15  1  0  0  0  0
  4 16  1  0  0  0  0
  5 17  1  0  0  0  0
  6 18  1  0  0  0  0
  6 19  1  0  0  0  0
  6 20  1  0  0  0  0
  7 21  1  0  0  0  0
  7 22  1  0  0  0  0
  7 23  1  0  0  0  0
M  END
