 xtb: 6.7.1 (edcfbbe)
          04112512153D

 21 20  0     0  0            999 V2000
    2.1773   -0.0808   -1.0187 C   0  0  0  0  0  0  0  0  0  0  0  0
    1.5934   -0.6167    0.2861 C   0  0  0  0  0  0  0  0  0  0  0  0
    0.2448    0.0167    0.6733 C   0  0  0  0  0  0  0  0  0  0  0  0
   -0.0113   -0.3349    1.6801 H   0  0  0  0  0  0  0  0  0  0  0  0
   -0.8958   -0.4156   -0.2967 C   0  0  0  0  0  0  0  0  0  0  0  0
   -1.8874   -1.3199    0.4349 C   0  0  0  0  0  0  0  0  0  0  0  0
   -1.6312    0.7765   -0.9076 C   0  0  0  0  0  0  0  0  0  0  0  0
    0.3580    1.4155    0.8417 O   0  0  0  0  0  0  0  0  0  0  0  0
    1.4699   -0.1780   -1.8390 H   0  0  0  0  0  0  0  0  0  0  0  0
    3.0732   -0.6404   -1.2752 H   0  0  0  0  0  0  0  0  0  0  0  0
    2.4565    0.9654   -0.9179 H   0  0  0  0  0  0  0  0  0  0  0  0
    1.4471   -1.6953    0.2124 H   0  0  0  0  0  0  0  0  0  0  0  0
    2.3031   -0.4280    1.0944 H   0  0  0  0  0  0  0  0  0  0  0  0
   -0.4545   -0.9973   -1.1120 H   0  0  0  0  0  0  0  0  0  0  0  0
   -1.3768   -2.1779    0.8661 H   0  0  0  0  0  0  0  0  0  0  0  0
   -2.3791   -0.7709    1.2351 H   0  0  0  0  0  0  0  0  0  0  0  0
   -2.6479   -1.6830   -0.2525 H   0  0  0  0  0  0  0  0  0  0  0  0
   -0.9827    1.3434   -1.5714 H   0  0  0  0  0  0  0  0  0  0  0  0
   -1.9941    1.4385   -0.1247 H   0  0  0  0  0  0  0  0  0  0  0  0
   -2.4811    0.4243   -1.4869 H   0  0  0  0  0  0  0  0  0  0  0  0
    0.6493    1.8052    0.0065 H   0  0  0  0  0  0  0  0  0  0  0  0
  1  2  1  0  0  0  0
  2  3  1  0  0  0  0
  3  4  1  0  0  0  0
  3  5  1  0  0  0  0
  5  6  1  0  0  0  0
  5  7  1  0  0  0  0
  3  8  1  0  0  0  0
  1  9  1  0  0  0  0
  1 10  1  0  0  0  0
  1 11  1  0  0  0  0
  2 12  1  0  0  0  0
  2 13  1  0  0  0  0
  5 14  1  0  0  0  0
  6 15  1  0  0  0  0
  6 16  1  0  0  0  0
  6 17  1  0  0  0  0
  7 18  1  0  0  0  0
  7 19  1  0  0  0  0
  7 20  1  0  0  0  0
  8 21  1  0  0  0  0
M  END
