 xtb: 6.7.1 (edcfbbe)
          04112511493D

 17 16  0     0  0            999 V2000
   -2.2025    1.0388    0.5883 C   0  0  0  0  0  0  0  0  0  0  0  0
   -2.0893   -0.3018   -0.1274 C   0  0  0  0  0  0  0  0  0  0  0  0
   -0.8171   -0.3817   -0.9761 C   0  0  0  0  0  0  0  0  0  0  0  0
    0.4146   -0.3912   -0.1089 C   0  0  0  0  0  0  0  0  0  0  0  0
    0.5878   -1.1074    0.8548 O   0  0  0  0  0  0  0  0  0  0  0  0
    1.3189    0.4873   -0.5303 O   0  0  0  0  0  0  0  0  0  0  0  0
    2.5510    0.5691    0.1908 C   0  0  0  0  0  0  0  0  0  0  0  0
   -3.1221    1.0837    1.1655 H   0  0  0  0  0  0  0  0  0  0  0  0
   -1.3647    1.1768    1.2693 H   0  0  0  0  0  0  0  0  0  0  0  0
   -2.2024    1.8566   -0.1283 H   0  0  0  0  0  0  0  0  0  0  0  0
   -2.9545   -0.4461   -0.7748 H   0  0  0  0  0  0  0  0  0  0  0  0
   -2.0695   -1.1090    0.6072 H   0  0  0  0  0  0  0  0  0  0  0  0
   -0.7490    0.4582   -1.6665 H   0  0  0  0  0  0  0  0  0  0  0  0
   -0.8182   -1.3133   -1.5451 H   0  0  0  0  0  0  0  0  0  0  0  0
    3.1626    1.2816   -0.3533 H   0  0  0  0  0  0  0  0  0  0  0  0
    3.0272   -0.4112    0.2284 H   0  0  0  0  0  0  0  0  0  0  0  0
    2.3639    0.9114    1.2093 H   0  0  0  0  0  0  0  0  0  0  0  0
  1  2  1  0  0  0  0
  2  3  1  0  0  0  0
  3  4  1  0  0  0  0
  4  5  2  0  0  0  0
  4  6  1  0  0  0  0
  6  7  1  0  0  0  0
  1  8  1  0  0  0  0
  1  9  1  0  0  0  0
  1 10  1  0  0  0  0
  2 11  1  0  0  0  0
  2 12  1  0  0  0  0
  3 13  1  0  0  0  0
  3 14  1  0  0  0  0
  7 15  1  0  0  0  0
  7 16  1  0  0  0  0
  7 17  1  0  0  0  0
M  END
