 xtb: 6.7.1 (edcfbbe)
          04112511203D

 21 20  0     0  0            999 V2000
   -2.3166   -0.0506   -1.0224 C   0  0  0  0  0  0  0  0  0  0  0  0
   -1.7658    0.6444    0.2180 C   0  0  0  0  0  0  0  0  0  0  0  0
   -0.5844   -0.0617    0.8848 C   0  0  0  0  0  0  0  0  0  0  0  0
    0.7681   -0.1047    0.1433 C   0  0  0  0  0  0  0  0  0  0  0  0
    1.0707    1.2025   -0.5962 C   0  0  0  0  0  0  0  0  0  0  0  0
    0.8639   -1.2933   -0.8190 C   0  0  0  0  0  0  0  0  0  0  0  0
    1.7237   -0.2831    1.1956 O   0  0  0  0  0  0  0  0  0  0  0  0
   -2.4920   -1.1050   -0.8228 H   0  0  0  0  0  0  0  0  0  0  0  0
   -1.6348    0.0360   -1.8639 H   0  0  0  0  0  0  0  0  0  0  0  0
   -3.2612    0.4047   -1.3117 H   0  0  0  0  0  0  0  0  0  0  0  0
   -1.4964    1.6718   -0.0277 H   0  0  0  0  0  0  0  0  0  0  0  0
   -2.5626    0.6902    0.9643 H   0  0  0  0  0  0  0  0  0  0  0  0
   -0.3820    0.4438    1.8328 H   0  0  0  0  0  0  0  0  0  0  0  0
   -0.8675   -1.0885    1.1256 H   0  0  0  0  0  0  0  0  0  0  0  0
    2.0803    1.1727   -1.0017 H   0  0  0  0  0  0  0  0  0  0  0  0
    1.0001    2.0426    0.0904 H   0  0  0  0  0  0  0  0  0  0  0  0
    0.3772    1.3498   -1.4173 H   0  0  0  0  0  0  0  0  0  0  0  0
    1.8353   -1.3011   -1.3106 H   0  0  0  0  0  0  0  0  0  0  0  0
    0.0937   -1.2413   -1.5794 H   0  0  0  0  0  0  0  0  0  0  0  0
    0.7484   -2.2226   -0.2655 H   0  0  0  0  0  0  0  0  0  0  0  0
    2.6053   -0.3693    0.8083 H   0  0  0  0  0  0  0  0  0  0  0  0
  1  2  1  0  0  0  0
  2  3  1  0  0  0  0
  3  4  1  0  0  0  0
  4  5  1  0  0  0  0
  4  6  1  0  0  0  0
  4  7  1  0  0  0  0
  1  8  1  0  0  0  0
  1  9  1  0  0  0  0
  1 10  1  0  0  0  0
  2 11  1  0  0  0  0
  2 12  1  0  0  0  0
  3 13  1  0  0  0  0
  3 14  1  0  0  0  0
  5 15  1  0  0  0  0
  5 16  1  0  0  0  0
  5 17  1  0  0  0  0
  6 18  1  0  0  0  0
  6 19  1  0  0  0  0
  6 20  1  0  0  0  0
  7 21  1  0  0  0  0
M  END
