 xtb: 6.7.1 (edcfbbe)
          04112512233D

 20 19  0     0  0            999 V2000
   -3.0116    0.7376    0.1677 C   0  0  0  0  0  0  0  0  0  0  0  0
   -1.8089   -0.1800    0.3687 C   0  0  0  0  0  0  0  0  0  0  0  0
   -1.9816   -1.4867   -0.4015 C   0  0  0  0  0  0  0  0  0  0  0  0
   -0.5358    0.5357   -0.0772 C   0  0  0  0  0  0  0  0  0  0  0  0
    0.5962   -0.2606    0.2963 O   0  0  0  0  0  0  0  0  0  0  0  0
    1.8000    0.1819   -0.0426 C   0  0  0  0  0  0  0  0  0  0  0  0
    1.9784    1.2244   -0.6404 O   0  0  0  0  0  0  0  0  0  0  0  0
    2.8829   -0.7609    0.3878 C   0  0  0  0  0  0  0  0  0  0  0  0
   -3.9198    0.2356    0.4882 H   0  0  0  0  0  0  0  0  0  0  0  0
   -3.1141    1.0010   -0.8823 H   0  0  0  0  0  0  0  0  0  0  0  0
   -2.9003    1.6529    0.7432 H   0  0  0  0  0  0  0  0  0  0  0  0
   -1.7017   -0.4091    1.4334 H   0  0  0  0  0  0  0  0  0  0  0  0
   -2.1119   -1.2851   -1.4624 H   0  0  0  0  0  0  0  0  0  0  0  0
   -2.8546   -2.0235   -0.0411 H   0  0  0  0  0  0  0  0  0  0  0  0
   -1.1064   -2.1177   -0.2720 H   0  0  0  0  0  0  0  0  0  0  0  0
   -0.5194    0.6833   -1.1626 H   0  0  0  0  0  0  0  0  0  0  0  0
   -0.4406    1.5177    0.3988 H   0  0  0  0  0  0  0  0  0  0  0  0
    2.5203   -1.4027    1.1832 H   0  0  0  0  0  0  0  0  0  0  0  0
    3.7535   -0.1943    0.7035 H   0  0  0  0  0  0  0  0  0  0  0  0
    3.1657   -1.3717   -0.4670 H   0  0  0  0  0  0  0  0  0  0  0  0
  1  2  1  0  0  0  0
  2  3  1  0  0  0  0
  2  4  1  0  0  0  0
  4  5  1  0  0  0  0
  5  6  1  0  0  0  0
  6  7  2  0  0  0  0
  6  8  1  0  0  0  0
  1  9  1  0  0  0  0
  1 10  1  0  0  0  0
  1 11  1  0  0  0  0
  2 12  1  0  0  0  0
  3 13  1  0  0  0  0
  3 14  1  0  0  0  0
  3 15  1  0  0  0  0
  4 16  1  0  0  0  0
  4 17  1  0  0  0  0
  8 18  1  0  0  0  0
  8 19  1  0  0  0  0
  8 20  1  0  0  0  0
M  END
