 xtb: 6.7.1 (edcfbbe)
          04112511203D

 21 20  0     0  0            999 V2000
   -2.3015    0.7548   -0.8639 C   0  0  0  0  0  0  0  0  0  0  0  0
   -1.8428   -0.4234   -0.0122 C   0  0  0  0  0  0  0  0  0  0  0  0
   -0.6028   -0.1627    0.8477 C   0  0  0  0  0  0  0  0  0  0  0  0
    0.7749   -0.0721    0.1557 C   0  0  0  0  0  0  0  0  0  0  0  0
    0.9971    1.2566   -0.5686 C   0  0  0  0  0  0  0  0  0  0  0  0
    1.0067   -1.2450   -0.8028 C   0  0  0  0  0  0  0  0  0  0  0  0
    1.7759   -0.0913    1.1800 O   0  0  0  0  0  0  0  0  0  0  0  0
   -3.2949    0.5577   -1.2611 H   0  0  0  0  0  0  0  0  0  0  0  0
   -1.6352    0.9256   -1.7037 H   0  0  0  0  0  0  0  0  0  0  0  0
   -2.3448    1.6630   -0.2678 H   0  0  0  0  0  0  0  0  0  0  0  0
   -2.6530   -0.6763    0.6767 H   0  0  0  0  0  0  0  0  0  0  0  0
   -1.6789   -1.2934   -0.6487 H   0  0  0  0  0  0  0  0  0  0  0  0
   -0.7491    0.7559    1.4211 H   0  0  0  0  0  0  0  0  0  0  0  0
   -0.5356   -0.9828    1.5698 H   0  0  0  0  0  0  0  0  0  0  0  0
    0.7435    2.0857    0.0862 H   0  0  0  0  0  0  0  0  0  0  0  0
    0.4055    1.3172   -1.4736 H   0  0  0  0  0  0  0  0  0  0  0  0
    2.0499    1.3384   -0.8282 H   0  0  0  0  0  0  0  0  0  0  0  0
    0.7805   -2.1907   -0.3144 H   0  0  0  0  0  0  0  0  0  0  0  0
    2.0490   -1.2521   -1.1136 H   0  0  0  0  0  0  0  0  0  0  0  0
    0.3842   -1.1471   -1.6862 H   0  0  0  0  0  0  0  0  0  0  0  0
    1.7463   -0.9414    1.6386 H   0  0  0  0  0  0  0  0  0  0  0  0
  1  2  1  0  0  0  0
  2  3  1  0  0  0  0
  3  4  1  0  0  0  0
  4  5  1  0  0  0  0
  4  6  1  0  0  0  0
  4  7  1  0  0  0  0
  1  8  1  0  0  0  0
  1  9  1  0  0  0  0
  1 10  1  0  0  0  0
  2 11  1  0  0  0  0
  2 12  1  0  0  0  0
  3 13  1  0  0  0  0
  3 14  1  0  0  0  0
  5 15  1  0  0  0  0
  5 16  1  0  0  0  0
  5 17  1  0  0  0  0
  6 18  1  0  0  0  0
  6 19  1  0  0  0  0
  6 20  1  0  0  0  0
  7 21  1  0  0  0  0
M  END
