 xtb: 6.7.1 (edcfbbe)
          04112511523D

 13 12  0     0  0            999 V2000
    1.8325   -1.2677   -0.0472 C   0  0  0  0  0  0  0  0  0  0  0  0
    1.0402   -0.3801   -0.8522 O   0  0  0  0  0  0  0  0  0  0  0  0
   -0.0544    0.4821   -0.1377 S   0  0  0  0  0  0  0  0  0  0  0  0
   -0.3880    1.5262   -1.0502 O   0  0  0  0  0  0  0  0  0  0  0  0
    0.3827    0.8362    1.1826 O   0  0  0  0  0  0  0  0  0  0  0  0
   -1.3163   -0.4417   -0.0556 O   0  0  0  0  0  0  0  0  0  0  0  0
   -1.4478   -1.3177    1.0754 C   0  0  0  0  0  0  0  0  0  0  0  0
    2.8250   -1.2821   -0.4928 H   0  0  0  0  0  0  0  0  0  0  0  0
    1.3905   -2.2629   -0.0673 H   0  0  0  0  0  0  0  0  0  0  0  0
    1.8725   -0.8748    0.9675 H   0  0  0  0  0  0  0  0  0  0  0  0
   -1.0807   -2.3076    0.8081 H   0  0  0  0  0  0  0  0  0  0  0  0
   -2.5089   -1.3559    1.3129 H   0  0  0  0  0  0  0  0  0  0  0  0
   -0.8830   -0.8996    1.9070 H   0  0  0  0  0  0  0  0  0  0  0  0
  1  2  1  0  0  0  0
  2  3  1  0  0  0  0
  3  4  2  0  0  0  0
  3  5  2  0  0  0  0
  3  6  1  0  0  0  0
  6  7  1  0  0  0  0
  1  8  1  0  0  0  0
  1  9  1  0  0  0  0
  1 10  1  0  0  0  0
  7 11  1  0  0  0  0
  7 12  1  0  0  0  0
  7 13  1  0  0  0  0
M  END
