 xtb: 6.7.1 (edcfbbe)
          04112512193D

 17 16  0     0  0            999 V2000
   -2.8505    0.1236    0.3172 C   0  0  0  0  0  0  0  0  0  0  0  0
   -1.6561    0.6222   -0.4963 C   0  0  0  0  0  0  0  0  0  0  0  0
   -0.4084   -0.1361   -0.1202 C   0  0  0  0  0  0  0  0  0  0  0  0
   -0.2910   -1.3427   -0.1710 O   0  0  0  0  0  0  0  0  0  0  0  0
    0.5525    0.6803    0.2936 O   0  0  0  0  0  0  0  0  0  0  0  0
    1.8185    0.1165    0.6770 C   0  0  0  0  0  0  0  0  0  0  0  0
    2.7462   -0.0078   -0.5218 C   0  0  0  0  0  0  0  0  0  0  0  0
   -2.7092    0.3399    1.3730 H   0  0  0  0  0  0  0  0  0  0  0  0
   -3.7595    0.6109   -0.0216 H   0  0  0  0  0  0  0  0  0  0  0  0
   -2.9574   -0.9515    0.1959 H   0  0  0  0  0  0  0  0  0  0  0  0
   -1.4820    1.6844   -0.3326 H   0  0  0  0  0  0  0  0  0  0  0  0
   -1.8415    0.4435   -1.5568 H   0  0  0  0  0  0  0  0  0  0  0  0
    2.2169    0.8112    1.4170 H   0  0  0  0  0  0  0  0  0  0  0  0
    1.6403   -0.8631    1.1307 H   0  0  0  0  0  0  0  0  0  0  0  0
    2.3319   -0.7093   -1.2424 H   0  0  0  0  0  0  0  0  0  0  0  0
    2.8706    0.9597   -1.0004 H   0  0  0  0  0  0  0  0  0  0  0  0
    3.7134   -0.3721   -0.1915 H   0  0  0  0  0  0  0  0  0  0  0  0
  1  2  1  0  0  0  0
  2  3  1  0  0  0  0
  3  4  2  0  0  0  0
  3  5  1  0  0  0  0
  5  6  1  0  0  0  0
  6  7  1  0  0  0  0
  1  8  1  0  0  0  0
  1  9  1  0  0  0  0
  1 10  1  0  0  0  0
  2 11  1  0  0  0  0
  2 12  1  0  0  0  0
  6 13  1  0  0  0  0
  6 14  1  0  0  0  0
  7 15  1  0  0  0  0
  7 16  1  0  0  0  0
  7 17  1  0  0  0  0
M  END
