 xtb: 6.7.1 (edcfbbe)
          04112511173D

 35 35  0     0  0            999 V2000
    0.0417   -3.1286   -0.1266 C   0  0  0  0  0  0  0  0  0  0  0  0
    0.6691   -1.7744   -0.0352 C   0  0  0  0  0  0  0  0  0  0  0  0
    2.0551   -1.5753   -0.0808 C   0  0  0  0  0  0  0  0  0  0  0  0
    2.6001   -0.3716   -0.0148 N   0  0  0  0  0  0  0  0  0  0  0  0
    1.7876    0.6878    0.1142 C   0  0  0  0  0  0  0  0  0  0  0  0
    0.4475    0.5983    0.2063 N   0  0  0  0  0  0  0  0  0  0  0  0
   -0.0740   -0.6055    0.1094 C   0  0  0  0  0  0  0  0  0  0  0  0
   -1.4441   -0.7030    0.2351 O   0  0  0  0  0  0  0  0  0  0  0  0
   -2.2302    0.2422   -0.3740 C   0  0  0  0  0  0  0  0  0  0  0  0
   -1.8457    0.9059   -1.3218 O   0  0  0  0  0  0  0  0  0  0  0  0
   -3.4543    0.2973    0.1531 N   0  0  0  0  0  0  0  0  0  0  0  0
   -4.4586    1.1494   -0.4482 C   0  0  0  0  0  0  0  0  0  0  0  0
   -3.8983   -0.5033    1.2735 C   0  0  0  0  0  0  0  0  0  0  0  0
    2.3347    1.9070    0.1670 N   0  0  0  0  0  0  0  0  0  0  0  0
    3.7639    2.1018    0.1403 C   0  0  0  0  0  0  0  0  0  0  0  0
    1.5272    3.0988    0.2536 C   0  0  0  0  0  0  0  0  0  0  0  0
    2.9932   -2.7292   -0.2175 C   0  0  0  0  0  0  0  0  0  0  0  0
    0.3302   -3.7395    0.7276 H   0  0  0  0  0  0  0  0  0  0  0  0
   -1.0405   -3.0359   -0.1422 H   0  0  0  0  0  0  0  0  0  0  0  0
    0.3678   -3.6370   -1.0324 H   0  0  0  0  0  0  0  0  0  0  0  0
   -4.8045    1.8814    0.2815 H   0  0  0  0  0  0  0  0  0  0  0  0
   -5.3016    0.5452   -0.7840 H   0  0  0  0  0  0  0  0  0  0  0  0
   -4.0142    1.6632   -1.2971 H   0  0  0  0  0  0  0  0  0  0  0  0
   -3.0445   -0.9561    1.7679 H   0  0  0  0  0  0  0  0  0  0  0  0
   -4.5740   -1.2879    0.9287 H   0  0  0  0  0  0  0  0  0  0  0  0
   -4.4269    0.1400    1.9760 H   0  0  0  0  0  0  0  0  0  0  0  0
    4.2475    1.1305    0.1165 H   0  0  0  0  0  0  0  0  0  0  0  0
    4.0752    2.6504    1.0306 H   0  0  0  0  0  0  0  0  0  0  0  0
    4.0454    2.6735   -0.7458 H   0  0  0  0  0  0  0  0  0  0  0  0
    1.6149    3.5478    1.2453 H   0  0  0  0  0  0  0  0  0  0  0  0
    0.4898    2.8359    0.0646 H   0  0  0  0  0  0  0  0  0  0  0  0
    1.8640    3.8173   -0.4943 H   0  0  0  0  0  0  0  0  0  0  0  0
    4.0156   -2.3665   -0.2100 H   0  0  0  0  0  0  0  0  0  0  0  0
    2.8447   -3.4289    0.6018 H   0  0  0  0  0  0  0  0  0  0  0  0
    2.8009   -3.2554   -1.1500 H   0  0  0  0  0  0  0  0  0  0  0  0
  1  2  1  0  0  0  0
  2  3  4  0  0  0  0
  3  4  4  0  0  0  0
  4  5  4  0  0  0  0
  5  6  4  0  0  0  0
  2  7  4  0  0  0  0
  6  7  4  0  0  0  0
  7  8  1  0  0  0  0
  8  9  1  0  0  0  0
  9 10  2  0  0  0  0
  9 11  4  0  0  0  0
 11 12  1  0  0  0  0
 11 13  1  0  0  0  0
  5 14  4  0  0  0  0
 14 15  1  0  0  0  0
 14 16  1  0  0  0  0
  3 17  1  0  0  0  0
  1 18  1  0  0  0  0
  1 19  1  0  0  0  0
  1 20  1  0  0  0  0
 12 21  1  0  0  0  0
 12 22  1  0  0  0  0
 12 23  1  0  0  0  0
 13 24  1  0  0  0  0
 13 25  1  0  0  0  0
 13 26  1  0  0  0  0
 15 27  1  0  0  0  0
 15 28  1  0  0  0  0
 15 29  1  0  0  0  0
 16 30  1  0  0  0  0
 16 31  1  0  0  0  0
 16 32  1  0  0  0  0
 17 33  1  0  0  0  0
 17 34  1  0  0  0  0
 17 35  1  0  0  0  0
M  END
