 xtb: 6.7.1 (edcfbbe)
          04112512083D

 17 16  0     0  0            999 V2000
   -2.4416   -0.1129    1.0363 C   0  0  0  0  0  0  0  0  0  0  0  0
   -2.1610    0.5573   -0.3037 C   0  0  0  0  0  0  0  0  0  0  0  0
   -0.8510    0.0803   -0.9172 C   0  0  0  0  0  0  0  0  0  0  0  0
    0.2401    0.5437   -0.1076 O   0  0  0  0  0  0  0  0  0  0  0  0
    1.3362   -0.1971   -0.0239 C   0  0  0  0  0  0  0  0  0  0  0  0
    1.4798   -1.2516   -0.6104 O   0  0  0  0  0  0  0  0  0  0  0  0
    2.3553    0.4237    0.8841 C   0  0  0  0  0  0  0  0  0  0  0  0
   -2.5070   -1.1921    0.9167 H   0  0  0  0  0  0  0  0  0  0  0  0
   -1.6452    0.1083    1.7427 H   0  0  0  0  0  0  0  0  0  0  0  0
   -3.3795    0.2477    1.4488 H   0  0  0  0  0  0  0  0  0  0  0  0
   -2.1072    1.6382   -0.1714 H   0  0  0  0  0  0  0  0  0  0  0  0
   -2.9617    0.3331   -1.0083 H   0  0  0  0  0  0  0  0  0  0  0  0
   -0.8041   -1.0123   -0.9737 H   0  0  0  0  0  0  0  0  0  0  0  0
   -0.7157    0.4909   -1.9226 H   0  0  0  0  0  0  0  0  0  0  0  0
    2.4580   -0.1992    1.7696 H   0  0  0  0  0  0  0  0  0  0  0  0
    2.0408    1.4225    1.1659 H   0  0  0  0  0  0  0  0  0  0  0  0
    3.3172    0.4474    0.3797 H   0  0  0  0  0  0  0  0  0  0  0  0
  1  2  1  0  0  0  0
  2  3  1  0  0  0  0
  3  4  1  0  0  0  0
  4  5  1  0  0  0  0
  5  6  2  0  0  0  0
  5  7  1  0  0  0  0
  1  8  1  0  0  0  0
  1  9  1  0  0  0  0
  1 10  1  0  0  0  0
  2 11  1  0  0  0  0
  2 12  1  0  0  0  0
  3 13  1  0  0  0  0
  3 14  1  0  0  0  0
  7 15  1  0  0  0  0
  7 16  1  0  0  0  0
  7 17  1  0  0  0  0
M  END
