 xtb: 6.7.1 (edcfbbe)
          04112511193D

 14 13  0     0  0            999 V2000
   -1.0770   -0.1200    0.7237 C   0  0  0  0  0  0  0  0  0  0  0  0
    0.2468    0.5519    0.3315 C   0  0  0  0  0  0  0  0  0  0  0  0
    1.1019   -0.4047   -0.5108 C   0  0  0  0  0  0  0  0  0  0  0  0
    1.6635   -1.3591    0.3628 O   0  0  0  0  0  0  0  0  0  0  0  0
   -0.0847    1.7290   -0.3734 O   0  0  0  0  0  0  0  0  0  0  0  0
   -1.8778   -0.3998   -0.3976 O   0  0  0  0  0  0  0  0  0  0  0  0
   -1.6132    0.5334    1.4236 H   0  0  0  0  0  0  0  0  0  0  0  0
   -0.8642   -1.0737    1.2087 H   0  0  0  0  0  0  0  0  0  0  0  0
    0.7999    0.7844    1.2523 H   0  0  0  0  0  0  0  0  0  0  0  0
    1.8940    0.1624   -1.0200 H   0  0  0  0  0  0  0  0  0  0  0  0
    0.4614   -0.8793   -1.2638 H   0  0  0  0  0  0  0  0  0  0  0  0
    2.1137   -2.0404   -0.1552 H   0  0  0  0  0  0  0  0  0  0  0  0
    0.7155    2.2339   -0.5695 H   0  0  0  0  0  0  0  0  0  0  0  0
   -1.9987    0.4306   -0.8829 H   0  0  0  0  0  0  0  0  0  0  0  0
  1  2  1  0  0  0  0
  2  3  1  0  0  0  0
  3  4  1  0  0  0  0
  2  5  1  0  0  0  0
  1  6  1  0  0  0  0
  1  7  1  0  0  0  0
  1  8  1  0  0  0  0
  2  9  1  0  0  0  0
  3 10  1  0  0  0  0
  3 11  1  0  0  0  0
  4 12  1  0  0  0  0
  5 13  1  0  0  0  0
  6 14  1  0  0  0  0
M  END
