 xtb: 6.7.1 (edcfbbe)
          04112511233D

 26 25  0     0  0            999 V2000
   -1.3544   -1.2798    0.6667 C   0  0  0  0  0  0  0  0  0  0  0  0
   -1.0806   -0.3286   -0.4967 C   0  0  0  0  0  0  0  0  0  0  0  0
   -2.3866    0.3758   -0.8787 C   0  0  0  0  0  0  0  0  0  0  0  0
    0.0394    0.7119   -0.2662 C   0  0  0  0  0  0  0  0  0  0  0  0
   -0.2859    1.6974    0.8577 C   0  0  0  0  0  0  0  0  0  0  0  0
    1.4768    0.1552   -0.1039 C   0  0  0  0  0  0  0  0  0  0  0  0
    1.8299   -0.3738    1.2866 C   0  0  0  0  0  0  0  0  0  0  0  0
    1.8121   -0.8984   -1.1598 C   0  0  0  0  0  0  0  0  0  0  0  0
   -0.5344   -1.9761    0.8133 H   0  0  0  0  0  0  0  0  0  0  0  0
   -1.5236   -0.7359    1.5916 H   0  0  0  0  0  0  0  0  0  0  0  0
   -2.2477   -1.8635    0.4519 H   0  0  0  0  0  0  0  0  0  0  0  0
   -0.7817   -0.9330   -1.3592 H   0  0  0  0  0  0  0  0  0  0  0  0
   -2.2158    1.1203   -1.6532 H   0  0  0  0  0  0  0  0  0  0  0  0
   -2.8307    0.8659   -0.0163 H   0  0  0  0  0  0  0  0  0  0  0  0
   -3.1032   -0.3499   -1.2578 H   0  0  0  0  0  0  0  0  0  0  0  0
    0.0711    1.2951   -1.1973 H   0  0  0  0  0  0  0  0  0  0  0  0
   -1.1655    2.2843    0.6091 H   0  0  0  0  0  0  0  0  0  0  0  0
    0.5457    2.3851    0.9974 H   0  0  0  0  0  0  0  0  0  0  0  0
   -0.4688    1.1859    1.7978 H   0  0  0  0  0  0  0  0  0  0  0  0
    2.1374    1.0142   -0.2842 H   0  0  0  0  0  0  0  0  0  0  0  0
    2.8773   -0.6702    1.2988 H   0  0  0  0  0  0  0  0  0  0  0  0
    1.6908    0.3905    2.0450 H   0  0  0  0  0  0  0  0  0  0  0  0
    1.2342   -1.2396    1.5542 H   0  0  0  0  0  0  0  0  0  0  0  0
    1.5416   -0.5489   -2.1538 H   0  0  0  0  0  0  0  0  0  0  0  0
    1.2893   -1.8306   -0.9624 H   0  0  0  0  0  0  0  0  0  0  0  0
    2.8803   -1.1045   -1.1508 H   0  0  0  0  0  0  0  0  0  0  0  0
  1  2  1  0  0  0  0
  2  3  1  0  0  0  0
  2  4  1  0  0  0  0
  4  5  1  0  0  0  0
  4  6  1  0  0  0  0
  6  7  1  0  0  0  0
  6  8  1  0  0  0  0
  1  9  1  0  0  0  0
  1 10  1  0  0  0  0
  1 11  1  0  0  0  0
  2 12  1  0  0  0  0
  3 13  1  0  0  0  0
  3 14  1  0  0  0  0
  3 15  1  0  0  0  0
  4 16  1  0  0  0  0
  5 17  1  0  0  0  0
  5 18  1  0  0  0  0
  5 19  1  0  0  0  0
  6 20  1  0  0  0  0
  7 21  1  0  0  0  0
  7 22  1  0  0  0  0
  7 23  1  0  0  0  0
  8 24  1  0  0  0  0
  8 25  1  0  0  0  0
  8 26  1  0  0  0  0
M  END
