 xtb: 6.7.1 (edcfbbe)
          04112512213D

 19 18  0     0  0            999 V2000
    1.8763    1.2374    0.1093 C   0  0  0  0  0  0  0  0  0  0  0  0
    1.1505   -0.1055    0.1248 C   0  0  0  0  0  0  0  0  0  0  0  0
    2.1034   -1.2244   -0.2897 C   0  0  0  0  0  0  0  0  0  0  0  0
   -0.0892   -0.0794   -0.8092 C   0  0  0  0  0  0  0  0  0  0  0  0
   -1.3483   -0.0588    0.0184 C   0  0  0  0  0  0  0  0  0  0  0  0
   -1.9591   -1.0787    0.2803 O   0  0  0  0  0  0  0  0  0  0  0  0
   -1.7760    1.2847    0.5280 C   0  0  0  0  0  0  0  0  0  0  0  0
    2.7095    1.2202    0.8077 H   0  0  0  0  0  0  0  0  0  0  0  0
    2.2668    1.4396   -0.8853 H   0  0  0  0  0  0  0  0  0  0  0  0
    1.2131    2.0504    0.3922 H   0  0  0  0  0  0  0  0  0  0  0  0
    0.8129   -0.3134    1.1473 H   0  0  0  0  0  0  0  0  0  0  0  0
    2.4504   -1.0690   -1.3085 H   0  0  0  0  0  0  0  0  0  0  0  0
    1.6062   -2.1899   -0.2332 H   0  0  0  0  0  0  0  0  0  0  0  0
    2.9678   -1.2464    0.3698 H   0  0  0  0  0  0  0  0  0  0  0  0
   -0.1014   -0.9802   -1.4231 H   0  0  0  0  0  0  0  0  0  0  0  0
   -0.0467    0.7947   -1.4559 H   0  0  0  0  0  0  0  0  0  0  0  0
   -2.6480    1.1866    1.1688 H   0  0  0  0  0  0  0  0  0  0  0  0
   -0.9600    1.7422    1.0813 H   0  0  0  0  0  0  0  0  0  0  0  0
   -2.0123    1.9285   -0.3157 H   0  0  0  0  0  0  0  0  0  0  0  0
  1  2  1  0  0  0  0
  2  3  1  0  0  0  0
  2  4  1  0  0  0  0
  4  5  1  0  0  0  0
  5  6  2  0  0  0  0
  5  7  1  0  0  0  0
  1  8  1  0  0  0  0
  1  9  1  0  0  0  0
  1 10  1  0  0  0  0
  2 11  1  0  0  0  0
  3 12  1  0  0  0  0
  3 13  1  0  0  0  0
  3 14  1  0  0  0  0
  4 15  1  0  0  0  0
  4 16  1  0  0  0  0
  7 17  1  0  0  0  0
  7 18  1  0  0  0  0
  7 19  1  0  0  0  0
M  END
