 xtb: 6.7.1 (edcfbbe)
          04112511493D

 17 16  0     0  0            999 V2000
   -3.1818    0.5729    0.0184 C   0  0  0  0  0  0  0  0  0  0  0  0
   -1.7718    0.3184   -0.4981 C   0  0  0  0  0  0  0  0  0  0  0  0
   -0.8191   -0.0547    0.6461 C   0  0  0  0  0  0  0  0  0  0  0  0
    0.5405   -0.3828    0.0925 C   0  0  0  0  0  0  0  0  0  0  0  0
    0.7958   -1.3415   -0.6064 O   0  0  0  0  0  0  0  0  0  0  0  0
    1.4471    0.5254    0.4356 O   0  0  0  0  0  0  0  0  0  0  0  0
    2.7808    0.3488   -0.0503 C   0  0  0  0  0  0  0  0  0  0  0  0
   -3.1823    1.3877    0.7378 H   0  0  0  0  0  0  0  0  0  0  0  0
   -3.8397    0.8380   -0.8046 H   0  0  0  0  0  0  0  0  0  0  0  0
   -3.5765   -0.3165    0.5029 H   0  0  0  0  0  0  0  0  0  0  0  0
   -1.3965    1.2127   -0.9995 H   0  0  0  0  0  0  0  0  0  0  0  0
   -1.7807   -0.4959   -1.2254 H   0  0  0  0  0  0  0  0  0  0  0  0
   -1.2040   -0.9388    1.1562 H   0  0  0  0  0  0  0  0  0  0  0  0
   -0.7254    0.7693    1.3518 H   0  0  0  0  0  0  0  0  0  0  0  0
    3.3300    1.2265    0.2751 H   0  0  0  0  0  0  0  0  0  0  0  0
    2.7737    0.2683   -1.1378 H   0  0  0  0  0  0  0  0  0  0  0  0
    3.2113   -0.5608    0.3698 H   0  0  0  0  0  0  0  0  0  0  0  0
  1  2  1  0  0  0  0
  2  3  1  0  0  0  0
  3  4  1  0  0  0  0
  4  5  2  0  0  0  0
  4  6  1  0  0  0  0
  6  7  1  0  0  0  0
  1  8  1  0  0  0  0
  1  9  1  0  0  0  0
  1 10  1  0  0  0  0
  2 11  1  0  0  0  0
  2 12  1  0  0  0  0
  3 13  1  0  0  0  0
  3 14  1  0  0  0  0
  7 15  1  0  0  0  0
  7 16  1  0  0  0  0
  7 17  1  0  0  0  0
M  END
