 xtb: 6.7.1 (edcfbbe)
          04112511203D

 21 20  0     0  0            999 V2000
   -3.0120    0.2691   -0.1744 C   0  0  0  0  0  0  0  0  0  0  0  0
   -1.5750    0.1574   -0.6724 C   0  0  0  0  0  0  0  0  0  0  0  0
   -0.6038    0.0399    0.4980 C   0  0  0  0  0  0  0  0  0  0  0  0
    0.8867   -0.0816    0.1364 C   0  0  0  0  0  0  0  0  0  0  0  0
    1.3921    1.1569   -0.6112 C   0  0  0  0  0  0  0  0  0  0  0  0
    1.1699   -1.3424   -0.6871 C   0  0  0  0  0  0  0  0  0  0  0  0
    1.5423   -0.1783    1.4029 O   0  0  0  0  0  0  0  0  0  0  0  0
   -3.2825   -0.6083    0.4084 H   0  0  0  0  0  0  0  0  0  0  0  0
   -3.7001    0.3520   -1.0121 H   0  0  0  0  0  0  0  0  0  0  0  0
   -3.1296    1.1471    0.4565 H   0  0  0  0  0  0  0  0  0  0  0  0
   -1.4899   -0.7193   -1.3156 H   0  0  0  0  0  0  0  0  0  0  0  0
   -1.3360    1.0401   -1.2668 H   0  0  0  0  0  0  0  0  0  0  0  0
   -0.7086    0.9132    1.1462 H   0  0  0  0  0  0  0  0  0  0  0  0
   -0.8625   -0.8357    1.0982 H   0  0  0  0  0  0  0  0  0  0  0  0
    0.9017    1.2468   -1.5750 H   0  0  0  0  0  0  0  0  0  0  0  0
    2.4647    1.0814   -0.7782 H   0  0  0  0  0  0  0  0  0  0  0  0
    1.1941    2.0513   -0.0254 H   0  0  0  0  0  0  0  0  0  0  0  0
    0.8120   -2.2213   -0.1564 H   0  0  0  0  0  0  0  0  0  0  0  0
    2.2402   -1.4485   -0.8527 H   0  0  0  0  0  0  0  0  0  0  0  0
    0.6789   -1.2851   -1.6530 H   0  0  0  0  0  0  0  0  0  0  0  0
    2.4950   -0.2583    1.2589 H   0  0  0  0  0  0  0  0  0  0  0  0
  1  2  1  0  0  0  0
  2  3  1  0  0  0  0
  3  4  1  0  0  0  0
  4  5  1  0  0  0  0
  4  6  1  0  0  0  0
  4  7  1  0  0  0  0
  1  8  1  0  0  0  0
  1  9  1  0  0  0  0
  1 10  1  0  0  0  0
  2 11  1  0  0  0  0
  2 12  1  0  0  0  0
  3 13  1  0  0  0  0
  3 14  1  0  0  0  0
  5 15  1  0  0  0  0
  5 16  1  0  0  0  0
  5 17  1  0  0  0  0
  6 18  1  0  0  0  0
  6 19  1  0  0  0  0
  6 20  1  0  0  0  0
  7 21  1  0  0  0  0
M  END
