 xtb: 6.7.1 (edcfbbe)
          04112512193D

 17 16  0     0  0            999 V2000
   -2.8800   -0.1590    0.2775 C   0  0  0  0  0  0  0  0  0  0  0  0
   -1.6613    0.7445    0.1521 C   0  0  0  0  0  0  0  0  0  0  0  0
   -0.4048   -0.0322   -0.1473 C   0  0  0  0  0  0  0  0  0  0  0  0
   -0.3380   -1.2342   -0.2876 O   0  0  0  0  0  0  0  0  0  0  0  0
    0.6439    0.7807   -0.2531 O   0  0  0  0  0  0  0  0  0  0  0  0
    1.9322    0.2025   -0.5223 C   0  0  0  0  0  0  0  0  0  0  0  0
    2.6206   -0.2310    0.7629 C   0  0  0  0  0  0  0  0  0  0  0  0
   -2.7343   -0.8803    1.0774 H   0  0  0  0  0  0  0  0  0  0  0  0
   -3.7645    0.4330    0.4907 H   0  0  0  0  0  0  0  0  0  0  0  0
   -3.0365   -0.7115   -0.6454 H   0  0  0  0  0  0  0  0  0  0  0  0
   -1.4906    1.3027    1.0741 H   0  0  0  0  0  0  0  0  0  0  0  0
   -1.7948    1.4737   -0.6489 H   0  0  0  0  0  0  0  0  0  0  0  0
    1.7981   -0.6511   -1.1938 H   0  0  0  0  0  0  0  0  0  0  0  0
    2.4888    0.9952   -1.0230 H   0  0  0  0  0  0  0  0  0  0  0  0
    3.6149   -0.5988    0.5317 H   0  0  0  0  0  0  0  0  0  0  0  0
    2.6982    0.6093    1.4476 H   0  0  0  0  0  0  0  0  0  0  0  0
    2.0521   -1.0263    1.2399 H   0  0  0  0  0  0  0  0  0  0  0  0
  1  2  1  0  0  0  0
  2  3  1  0  0  0  0
  3  4  2  0  0  0  0
  3  5  1  0  0  0  0
  5  6  1  0  0  0  0
  6  7  1  0  0  0  0
  1  8  1  0  0  0  0
  1  9  1  0  0  0  0
  1 10  1  0  0  0  0
  2 11  1  0  0  0  0
  2 12  1  0  0  0  0
  6 13  1  0  0  0  0
  6 14  1  0  0  0  0
  7 15  1  0  0  0  0
  7 16  1  0  0  0  0
  7 17  1  0  0  0  0
M  END
