 xtb: 6.7.1 (edcfbbe)
          04112512223D

 23 22  0     0  0            999 V2000
   -1.5557    1.1190    0.5124 C   0  0  0  0  0  0  0  0  0  0  0  0
   -1.1471   -0.2809    0.0592 C   0  0  0  0  0  0  0  0  0  0  0  0
   -2.3156   -0.9196   -0.6960 C   0  0  0  0  0  0  0  0  0  0  0  0
    0.0897   -0.2874   -0.8511 C   0  0  0  0  0  0  0  0  0  0  0  0
    1.4779   -0.0697   -0.2217 C   0  0  0  0  0  0  0  0  0  0  0  0
    1.7661    1.3794    0.1686 C   0  0  0  0  0  0  0  0  0  0  0  0
    1.7319   -0.9981    0.9645 C   0  0  0  0  0  0  0  0  0  0  0  0
   -0.8245    1.5513    1.1869 H   0  0  0  0  0  0  0  0  0  0  0  0
   -1.6663    1.7784   -0.3457 H   0  0  0  0  0  0  0  0  0  0  0  0
   -2.5091    1.0769    1.0356 H   0  0  0  0  0  0  0  0  0  0  0  0
   -0.9451   -0.8926    0.9431 H   0  0  0  0  0  0  0  0  0  0  0  0
   -3.2063   -0.9431   -0.0723 H   0  0  0  0  0  0  0  0  0  0  0  0
   -2.5416   -0.3483   -1.5942 H   0  0  0  0  0  0  0  0  0  0  0  0
   -2.0779   -1.9398   -0.9891 H   0  0  0  0  0  0  0  0  0  0  0  0
   -0.0532    0.4594   -1.6364 H   0  0  0  0  0  0  0  0  0  0  0  0
    0.1208   -1.2647   -1.3411 H   0  0  0  0  0  0  0  0  0  0  0  0
    2.1961   -0.3349   -1.0087 H   0  0  0  0  0  0  0  0  0  0  0  0
    1.2379    1.6584    1.0754 H   0  0  0  0  0  0  0  0  0  0  0  0
    2.8310    1.5066    0.3530 H   0  0  0  0  0  0  0  0  0  0  0  0
    1.4738    2.0593   -0.6278 H   0  0  0  0  0  0  0  0  0  0  0  0
    1.5021   -2.0282    0.7025 H   0  0  0  0  0  0  0  0  0  0  0  0
    2.7765   -0.9442    1.2630 H   0  0  0  0  0  0  0  0  0  0  0  0
    1.1237   -0.7115    1.8189 H   0  0  0  0  0  0  0  0  0  0  0  0
  1  2  1  0  0  0  0
  2  3  1  0  0  0  0
  2  4  1  0  0  0  0
  4  5  1  0  0  0  0
  5  6  1  0  0  0  0
  5  7  1  0  0  0  0
  1  8  1  0  0  0  0
  1  9  1  0  0  0  0
  1 10  1  0  0  0  0
  2 11  1  0  0  0  0
  3 12  1  0  0  0  0
  3 13  1  0  0  0  0
  3 14  1  0  0  0  0
  4 15  1  0  0  0  0
  4 16  1  0  0  0  0
  5 17  1  0  0  0  0
  6 18  1  0  0  0  0
  6 19  1  0  0  0  0
  6 20  1  0  0  0  0
  7 21  1  0  0  0  0
  7 22  1  0  0  0  0
  7 23  1  0  0  0  0
M  END
