 xtb: 6.7.1 (edcfbbe)
          04112512193D

 17 16  0     0  0            999 V2000
   -2.4109    1.0480   -0.3264 C   0  0  0  0  0  0  0  0  0  0  0  0
   -1.7996    0.0400    0.6516 C   0  0  0  0  0  0  0  0  0  0  0  0
   -0.5358   -0.5247    0.0572 C   0  0  0  0  0  0  0  0  0  0  0  0
   -0.4573   -1.5822   -0.5354 O   0  0  0  0  0  0  0  0  0  0  0  0
    0.4932    0.2902    0.2314 O   0  0  0  0  0  0  0  0  0  0  0  0
    1.7643   -0.0934   -0.3196 C   0  0  0  0  0  0  0  0  0  0  0  0
    2.8339    0.7881    0.2959 C   0  0  0  0  0  0  0  0  0  0  0  0
   -2.6340    0.5656   -1.2752 H   0  0  0  0  0  0  0  0  0  0  0  0
   -3.3316    1.4475    0.0877 H   0  0  0  0  0  0  0  0  0  0  0  0
   -1.7189    1.8672   -0.5033 H   0  0  0  0  0  0  0  0  0  0  0  0
   -2.4938   -0.7803    0.8294 H   0  0  0  0  0  0  0  0  0  0  0  0
   -1.5552    0.5378    1.5888 H   0  0  0  0  0  0  0  0  0  0  0  0
    1.9306   -1.1536   -0.1020 H   0  0  0  0  0  0  0  0  0  0  0  0
    1.7168    0.0298   -1.4064 H   0  0  0  0  0  0  0  0  0  0  0  0
    2.6242    1.8313    0.0796 H   0  0  0  0  0  0  0  0  0  0  0  0
    2.8564    0.6513    1.3730 H   0  0  0  0  0  0  0  0  0  0  0  0
    3.8006    0.5226   -0.1191 H   0  0  0  0  0  0  0  0  0  0  0  0
  1  2  1  0  0  0  0
  2  3  1  0  0  0  0
  3  4  2  0  0  0  0
  3  5  1  0  0  0  0
  5  6  1  0  0  0  0
  6  7  1  0  0  0  0
  1  8  1  0  0  0  0
  1  9  1  0  0  0  0
  1 10  1  0  0  0  0
  2 11  1  0  0  0  0
  2 12  1  0  0  0  0
  6 13  1  0  0  0  0
  6 14  1  0  0  0  0
  7 15  1  0  0  0  0
  7 16  1  0  0  0  0
  7 17  1  0  0  0  0
M  END
