 xtb: 6.7.1 (edcfbbe)
          04112511193D

 14 13  0     0  0            999 V2000
   -1.4400    0.1115    0.6056 C   0  0  0  0  0  0  0  0  0  0  0  0
    0.0748    0.3613    0.4850 C   0  0  0  0  0  0  0  0  0  0  0  0
    0.8090   -0.8718   -0.0743 C   0  0  0  0  0  0  0  0  0  0  0  0
    2.2113   -0.7670    0.0418 O   0  0  0  0  0  0  0  0  0  0  0  0
    0.2734    1.4973   -0.3368 O   0  0  0  0  0  0  0  0  0  0  0  0
   -2.0580   -0.3501   -0.5699 O   0  0  0  0  0  0  0  0  0  0  0  0
   -1.9187    1.0676    0.8285 H   0  0  0  0  0  0  0  0  0  0  0  0
   -1.6165   -0.5806    1.4372 H   0  0  0  0  0  0  0  0  0  0  0  0
    0.4513    0.5606    1.4978 H   0  0  0  0  0  0  0  0  0  0  0  0
    0.5198   -1.0181   -1.1203 H   0  0  0  0  0  0  0  0  0  0  0  0
    0.5296   -1.7492    0.5133 H   0  0  0  0  0  0  0  0  0  0  0  0
    2.5444   -0.1564   -0.6299 H   0  0  0  0  0  0  0  0  0  0  0  0
    1.1533    1.8640   -0.1777 H   0  0  0  0  0  0  0  0  0  0  0  0
   -1.8080   -1.2692   -0.7328 H   0  0  0  0  0  0  0  0  0  0  0  0
  1  2  1  0  0  0  0
  2  3  1  0  0  0  0
  3  4  1  0  0  0  0
  2  5  1  0  0  0  0
  1  6  1  0  0  0  0
  1  7  1  0  0  0  0
  1  8  1  0  0  0  0
  2  9  1  0  0  0  0
  3 10  1  0  0  0  0
  3 11  1  0  0  0  0
  4 12  1  0  0  0  0
  5 13  1  0  0  0  0
  6 14  1  0  0  0  0
M  END
