 xtb: 6.7.1 (edcfbbe)
          04112511193D

 14 13  0     0  0            999 V2000
   -1.4416    0.3922   -0.2377 C   0  0  0  0  0  0  0  0  0  0  0  0
   -0.0097    0.3736    0.3023 C   0  0  0  0  0  0  0  0  0  0  0  0
    0.7946   -0.7507   -0.3725 C   0  0  0  0  0  0  0  0  0  0  0  0
    2.1006   -0.8748    0.1438 O   0  0  0  0  0  0  0  0  0  0  0  0
    0.5508    1.6478    0.0499 O   0  0  0  0  0  0  0  0  0  0  0  0
   -2.0741   -0.8166    0.1094 O   0  0  0  0  0  0  0  0  0  0  0  0
   -1.4041    0.5241   -1.3266 H   0  0  0  0  0  0  0  0  0  0  0  0
   -1.9587    1.2540    0.2021 H   0  0  0  0  0  0  0  0  0  0  0  0
   -0.0487    0.1739    1.3811 H   0  0  0  0  0  0  0  0  0  0  0  0
    0.8180   -0.5759   -1.4541 H   0  0  0  0  0  0  0  0  0  0  0  0
    0.2883   -1.6966   -0.1732 H   0  0  0  0  0  0  0  0  0  0  0  0
    2.6431   -0.1491   -0.1956 H   0  0  0  0  0  0  0  0  0  0  0  0
    1.3127    1.7799    0.6302 H   0  0  0  0  0  0  0  0  0  0  0  0
   -2.9884   -0.7983   -0.2065 H   0  0  0  0  0  0  0  0  0  0  0  0
  1  2  1  0  0  0  0
  2  3  1  0  0  0  0
  3  4  1  0  0  0  0
  2  5  1  0  0  0  0
  1  6  1  0  0  0  0
  1  7  1  0  0  0  0
  1  8  1  0  0  0  0
  2  9  1  0  0  0  0
  3 10  1  0  0  0  0
  3 11  1  0  0  0  0
  4 12  1  0  0  0  0
  5 13  1  0  0  0  0
  6 14  1  0  0  0  0
M  END
