 xtb: 6.7.1 (edcfbbe)
          04112511193D

 14 13  0     0  0            999 V2000
   -1.3603   -0.2919   -0.4529 C   0  0  0  0  0  0  0  0  0  0  0  0
   -0.0105   -0.0378    0.2295 C   0  0  0  0  0  0  0  0  0  0  0  0
    1.1148   -0.7942   -0.4953 C   0  0  0  0  0  0  0  0  0  0  0  0
    2.3709   -0.4945    0.0682 O   0  0  0  0  0  0  0  0  0  0  0  0
    0.2579    1.3480    0.2346 O   0  0  0  0  0  0  0  0  0  0  0  0
   -2.4606    0.2091    0.2623 O   0  0  0  0  0  0  0  0  0  0  0  0
   -1.4729   -1.3712   -0.6243 H   0  0  0  0  0  0  0  0  0  0  0  0
   -1.3755    0.2268   -1.4133 H   0  0  0  0  0  0  0  0  0  0  0  0
   -0.0665   -0.3905    1.2752 H   0  0  0  0  0  0  0  0  0  0  0  0
    1.1641   -0.4541   -1.5322 H   0  0  0  0  0  0  0  0  0  0  0  0
    0.9163   -1.8704   -0.4829 H   0  0  0  0  0  0  0  0  0  0  0  0
    2.4526   -0.9239    0.9318 H   0  0  0  0  0  0  0  0  0  0  0  0
    1.2207    1.4650    0.2837 H   0  0  0  0  0  0  0  0  0  0  0  0
   -2.4600   -0.1577    1.1580 H   0  0  0  0  0  0  0  0  0  0  0  0
  1  2  1  0  0  0  0
  2  3  1  0  0  0  0
  3  4  1  0  0  0  0
  2  5  1  0  0  0  0
  1  6  1  0  0  0  0
  1  7  1  0  0  0  0
  1  8  1  0  0  0  0
  2  9  1  0  0  0  0
  3 10  1  0  0  0  0
  3 11  1  0  0  0  0
  4 12  1  0  0  0  0
  5 13  1  0  0  0  0
  6 14  1  0  0  0  0
M  END
