 xtb: 6.7.1 (edcfbbe)
          04112510353D

 18 17  0     0  0            999 V2000
   -2.0655    0.3677    0.7056 C   0  0  0  0  0  0  0  0  0  0  0  0
   -1.5242    0.2039   -0.7097 C   0  0  0  0  0  0  0  0  0  0  0  0
   -0.2459   -0.6349   -0.7412 C   0  0  0  0  0  0  0  0  0  0  0  0
    0.9374   -0.0505   -0.0104 C   0  0  0  0  0  0  0  0  0  0  0  0
    1.1771    1.2465    0.0992 C   0  0  0  0  0  0  0  0  0  0  0  0
    1.8691   -1.0734    0.5688 C   0  0  0  0  0  0  0  0  0  0  0  0
   -2.9730    0.9667    0.7006 H   0  0  0  0  0  0  0  0  0  0  0  0
   -1.3298    0.8582    1.3383 H   0  0  0  0  0  0  0  0  0  0  0  0
   -2.2969   -0.6033    1.1380 H   0  0  0  0  0  0  0  0  0  0  0  0
   -2.2769   -0.2921   -1.3268 H   0  0  0  0  0  0  0  0  0  0  0  0
   -1.3385    1.1849   -1.1488 H   0  0  0  0  0  0  0  0  0  0  0  0
   -0.4645   -1.6177   -0.3164 H   0  0  0  0  0  0  0  0  0  0  0  0
    0.0472   -0.7934   -1.7841 H   0  0  0  0  0  0  0  0  0  0  0  0
    2.0482    1.6146    0.6154 H   0  0  0  0  0  0  0  0  0  0  0  0
    0.5264    1.9977   -0.3124 H   0  0  0  0  0  0  0  0  0  0  0  0
    2.7535   -0.6050    0.9925 H   0  0  0  0  0  0  0  0  0  0  0  0
    1.3638   -1.6379    1.3517 H   0  0  0  0  0  0  0  0  0  0  0  0
    2.1776   -1.7780   -0.2022 H   0  0  0  0  0  0  0  0  0  0  0  0
  1  2  1  0  0  0  0
  2  3  1  0  0  0  0
  3  4  1  0  0  0  0
  4  5  2  0  0  0  0
  4  6  1  0  0  0  0
  1  7  1  0  0  0  0
  1  8  1  0  0  0  0
  1  9  1  0  0  0  0
  2 10  1  0  0  0  0
  2 11  1  0  0  0  0
  3 12  1  0  0  0  0
  3 13  1  0  0  0  0
  5 14  1  0  0  0  0
  5 15  1  0  0  0  0
  6 16  1  0  0  0  0
  6 17  1  0  0  0  0
  6 18  1  0  0  0  0
M  END
