 xtb: 6.7.1 (edcfbbe)
          04112512223D

 23 22  0     0  0            999 V2000
   -1.7379   -0.6210    1.0090 C   0  0  0  0  0  0  0  0  0  0  0  0
   -1.2598   -0.3380   -0.4130 C   0  0  0  0  0  0  0  0  0  0  0  0
   -2.3552    0.3901   -1.1917 C   0  0  0  0  0  0  0  0  0  0  0  0
    0.0308    0.4901   -0.4376 C   0  0  0  0  0  0  0  0  0  0  0  0
    1.2589   -0.2204    0.1623 C   0  0  0  0  0  0  0  0  0  0  0  0
    2.4780   -0.0516   -0.7449 C   0  0  0  0  0  0  0  0  0  0  0  0
    1.5872    0.3068    1.5587 C   0  0  0  0  0  0  0  0  0  0  0  0
   -2.6748   -1.1737    0.9875 H   0  0  0  0  0  0  0  0  0  0  0  0
   -1.0096   -1.2132    1.5561 H   0  0  0  0  0  0  0  0  0  0  0  0
   -1.9034    0.3116    1.5445 H   0  0  0  0  0  0  0  0  0  0  0  0
   -1.0626   -1.2955   -0.9098 H   0  0  0  0  0  0  0  0  0  0  0  0
   -3.2695   -0.1985   -1.2062 H   0  0  0  0  0  0  0  0  0  0  0  0
   -2.5727    1.3502   -0.7284 H   0  0  0  0  0  0  0  0  0  0  0  0
   -2.0454    0.5672   -2.2192 H   0  0  0  0  0  0  0  0  0  0  0  0
   -0.1420    1.4300    0.0907 H   0  0  0  0  0  0  0  0  0  0  0  0
    0.2419    0.7407   -1.4795 H   0  0  0  0  0  0  0  0  0  0  0  0
    1.0427   -1.2920    0.2372 H   0  0  0  0  0  0  0  0  0  0  0  0
    2.2886   -0.4777   -1.7275 H   0  0  0  0  0  0  0  0  0  0  0  0
    2.7165    1.0032   -0.8651 H   0  0  0  0  0  0  0  0  0  0  0  0
    3.3441   -0.5516   -0.3168 H   0  0  0  0  0  0  0  0  0  0  0  0
    0.7328    0.2162    2.2233 H   0  0  0  0  0  0  0  0  0  0  0  0
    2.4173   -0.2492    1.9898 H   0  0  0  0  0  0  0  0  0  0  0  0
    1.8712    1.3560    1.5054 H   0  0  0  0  0  0  0  0  0  0  0  0
  1  2  1  0  0  0  0
  2  3  1  0  0  0  0
  2  4  1  0  0  0  0
  4  5  1  0  0  0  0
  5  6  1  0  0  0  0
  5  7  1  0  0  0  0
  1  8  1  0  0  0  0
  1  9  1  0  0  0  0
  1 10  1  0  0  0  0
  2 11  1  0  0  0  0
  3 12  1  0  0  0  0
  3 13  1  0  0  0  0
  3 14  1  0  0  0  0
  4 15  1  0  0  0  0
  4 16  1  0  0  0  0
  5 17  1  0  0  0  0
  6 18  1  0  0  0  0
  6 19  1  0  0  0  0
  6 20  1  0  0  0  0
  7 21  1  0  0  0  0
  7 22  1  0  0  0  0
  7 23  1  0  0  0  0
M  END
