 xtb: 6.7.1 (edcfbbe)
          04112512203D

 18 17  0     0  0            999 V2000
   -1.7725    1.4506    0.3193 C   0  0  0  0  0  0  0  0  0  0  0  0
   -1.1519    0.3165   -0.4889 C   0  0  0  0  0  0  0  0  0  0  0  0
   -0.2472   -0.6018    0.3411 C   0  0  0  0  0  0  0  0  0  0  0  0
   -0.7636   -0.8632    1.2715 H   0  0  0  0  0  0  0  0  0  0  0  0
    0.0664   -1.8825   -0.4309 C   0  0  0  0  0  0  0  0  0  0  0  0
    1.0594    0.0999    0.7316 C   0  0  0  0  0  0  0  0  0  0  0  0
    1.7588    0.4956   -0.4321 O   0  0  0  0  0  0  0  0  0  0  0  0
   -1.0108    2.1289    0.6943 H   0  0  0  0  0  0  0  0  0  0  0  0
   -2.4552    2.0223   -0.3045 H   0  0  0  0  0  0  0  0  0  0  0  0
   -2.3296    1.0546    1.1659 H   0  0  0  0  0  0  0  0  0  0  0  0
   -0.5633    0.7272   -1.3110 H   0  0  0  0  0  0  0  0  0  0  0  0
   -1.9534   -0.2873   -0.9192 H   0  0  0  0  0  0  0  0  0  0  0  0
   -0.8506   -2.3983   -0.7030 H   0  0  0  0  0  0  0  0  0  0  0  0
    0.6757   -2.5520    0.1720 H   0  0  0  0  0  0  0  0  0  0  0  0
    0.6141   -1.6376   -1.3375 H   0  0  0  0  0  0  0  0  0  0  0  0
    1.6715   -0.5956    1.3228 H   0  0  0  0  0  0  0  0  0  0  0  0
    0.8366    0.9752    1.3558 H   0  0  0  0  0  0  0  0  0  0  0  0
    2.5892    0.9154   -0.1754 H   0  0  0  0  0  0  0  0  0  0  0  0
  1  2  1  0  0  0  0
  2  3  1  0  0  0  0
  3  4  1  0  0  0  0
  3  5  1  0  0  0  0
  3  6  1  0  0  0  0
  6  7  1  0  0  0  0
  1  8  1  0  0  0  0
  1  9  1  0  0  0  0
  1 10  1  0  0  0  0
  2 11  1  0  0  0  0
  2 12  1  0  0  0  0
  5 13  1  0  0  0  0
  5 14  1  0  0  0  0
  5 15  1  0  0  0  0
  6 16  1  0  0  0  0
  6 17  1  0  0  0  0
  7 18  1  0  0  0  0
M  END
