 xtb: 6.7.1 (edcfbbe)
          04112512193D

 17 16  0     0  0            999 V2000
   -2.8142   -0.1921   -0.4625 C   0  0  0  0  0  0  0  0  0  0  0  0
   -1.6880    0.7362   -0.0258 C   0  0  0  0  0  0  0  0  0  0  0  0
   -0.4058   -0.0124    0.2358 C   0  0  0  0  0  0  0  0  0  0  0  0
   -0.3225   -1.1968    0.4808 O   0  0  0  0  0  0  0  0  0  0  0  0
    0.6426    0.8051    0.1919 O   0  0  0  0  0  0  0  0  0  0  0  0
    1.9485    0.2563    0.4384 C   0  0  0  0  0  0  0  0  0  0  0  0
    2.5514   -0.3216   -0.8329 C   0  0  0  0  0  0  0  0  0  0  0  0
   -2.9424   -0.9894    0.2651 H   0  0  0  0  0  0  0  0  0  0  0  0
   -3.7434    0.3619   -0.5508 H   0  0  0  0  0  0  0  0  0  0  0  0
   -2.5821   -0.6464   -1.4223 H   0  0  0  0  0  0  0  0  0  0  0  0
   -1.9544    1.2366    0.9082 H   0  0  0  0  0  0  0  0  0  0  0  0
   -1.4883    1.5075   -0.7693 H   0  0  0  0  0  0  0  0  0  0  0  0
    2.5335    1.0987    0.8086 H   0  0  0  0  0  0  0  0  0  0  0  0
    1.8629   -0.5160    1.2088 H   0  0  0  0  0  0  0  0  0  0  0  0
    2.5799    0.4358   -1.6114 H   0  0  0  0  0  0  0  0  0  0  0  0
    3.5602   -0.6651   -0.6287 H   0  0  0  0  0  0  0  0  0  0  0  0
    1.9550   -1.1633   -1.1781 H   0  0  0  0  0  0  0  0  0  0  0  0
  1  2  1  0  0  0  0
  2  3  1  0  0  0  0
  3  4  2  0  0  0  0
  3  5  1  0  0  0  0
  5  6  1  0  0  0  0
  6  7  1  0  0  0  0
  1  8  1  0  0  0  0
  1  9  1  0  0  0  0
  1 10  1  0  0  0  0
  2 11  1  0  0  0  0
  2 12  1  0  0  0  0
  6 13  1  0  0  0  0
  6 14  1  0  0  0  0
  7 15  1  0  0  0  0
  7 16  1  0  0  0  0
  7 17  1  0  0  0  0
M  END
