 xtb: 6.7.1 (edcfbbe)
          04112511173D

 35 35  0     0  0            999 V2000
   -0.0440   -3.0619    0.1308 C   0  0  0  0  0  0  0  0  0  0  0  0
    0.6328   -1.7289    0.0768 C   0  0  0  0  0  0  0  0  0  0  0  0
    2.0249   -1.5949    0.0737 C   0  0  0  0  0  0  0  0  0  0  0  0
    2.6283   -0.4157    0.0264 N   0  0  0  0  0  0  0  0  0  0  0  0
    1.8606    0.6817   -0.0192 C   0  0  0  0  0  0  0  0  0  0  0  0
    0.5155    0.6563   -0.0209 N   0  0  0  0  0  0  0  0  0  0  0  0
   -0.0664   -0.5181    0.0247 C   0  0  0  0  0  0  0  0  0  0  0  0
   -1.4373   -0.5971    0.0238 O   0  0  0  0  0  0  0  0  0  0  0  0
   -2.2668    0.4922   -0.0355 C   0  0  0  0  0  0  0  0  0  0  0  0
   -1.9036    1.6515   -0.0945 O   0  0  0  0  0  0  0  0  0  0  0  0
   -3.5446    0.0912   -0.0207 N   0  0  0  0  0  0  0  0  0  0  0  0
   -4.6083    1.0719   -0.0682 C   0  0  0  0  0  0  0  0  0  0  0  0
   -3.9169   -1.3082    0.0514 C   0  0  0  0  0  0  0  0  0  0  0  0
    2.4537    1.8798   -0.0660 N   0  0  0  0  0  0  0  0  0  0  0  0
    3.8894    2.0178   -0.0689 C   0  0  0  0  0  0  0  0  0  0  0  0
    1.6927    3.1041   -0.1178 C   0  0  0  0  0  0  0  0  0  0  0  0
    2.9126   -2.7955    0.1240 C   0  0  0  0  0  0  0  0  0  0  0  0
    0.2370   -3.6641   -0.7320 H   0  0  0  0  0  0  0  0  0  0  0  0
    0.2534   -3.6008    1.0290 H   0  0  0  0  0  0  0  0  0  0  0  0
   -1.1214   -2.9336    0.1361 H   0  0  0  0  0  0  0  0  0  0  0  0
   -5.2227    0.9978    0.8290 H   0  0  0  0  0  0  0  0  0  0  0  0
   -5.2256    0.9079   -0.9514 H   0  0  0  0  0  0  0  0  0  0  0  0
   -4.1583    2.0608   -0.1189 H   0  0  0  0  0  0  0  0  0  0  0  0
   -4.9999   -1.3739    0.0313 H   0  0  0  0  0  0  0  0  0  0  0  0
   -3.5432   -1.7568    0.9726 H   0  0  0  0  0  0  0  0  0  0  0  0
   -3.5047   -1.8566   -0.7963 H   0  0  0  0  0  0  0  0  0  0  0  0
    4.2060    2.6039    0.7956 H   0  0  0  0  0  0  0  0  0  0  0  0
    4.2099    2.5281   -0.9790 H   0  0  0  0  0  0  0  0  0  0  0  0
    4.3342    1.0287   -0.0258 H   0  0  0  0  0  0  0  0  0  0  0  0
    1.9298    3.7244    0.7485 H   0  0  0  0  0  0  0  0  0  0  0  0
    0.6322    2.8643   -0.1146 H   0  0  0  0  0  0  0  0  0  0  0  0
    1.9399    3.6552   -1.0270 H   0  0  0  0  0  0  0  0  0  0  0  0
    2.7199   -3.3635    1.0314 H   0  0  0  0  0  0  0  0  0  0  0  0
    2.7140   -3.4420   -0.7278 H   0  0  0  0  0  0  0  0  0  0  0  0
    3.9497   -2.4779    0.1067 H   0  0  0  0  0  0  0  0  0  0  0  0
  1  2  1  0  0  0  0
  2  3  4  0  0  0  0
  3  4  4  0  0  0  0
  4  5  4  0  0  0  0
  5  6  4  0  0  0  0
  2  7  4  0  0  0  0
  6  7  4  0  0  0  0
  7  8  1  0  0  0  0
  8  9  1  0  0  0  0
  9 10  2  0  0  0  0
  9 11  4  0  0  0  0
 11 12  1  0  0  0  0
 11 13  1  0  0  0  0
  5 14  4  0  0  0  0
 14 15  1  0  0  0  0
 14 16  1  0  0  0  0
  3 17  1  0  0  0  0
  1 18  1  0  0  0  0
  1 19  1  0  0  0  0
  1 20  1  0  0  0  0
 12 21  1  0  0  0  0
 12 22  1  0  0  0  0
 12 23  1  0  0  0  0
 13 24  1  0  0  0  0
 13 25  1  0  0  0  0
 13 26  1  0  0  0  0
 15 27  1  0  0  0  0
 15 28  1  0  0  0  0
 15 29  1  0  0  0  0
 16 30  1  0  0  0  0
 16 31  1  0  0  0  0
 16 32  1  0  0  0  0
 17 33  1  0  0  0  0
 17 34  1  0  0  0  0
 17 35  1  0  0  0  0
M  END
