 xtb: 6.7.1 (edcfbbe)
          04112511493D

 17 16  0     0  0            999 V2000
   -2.0972    1.0906   -0.6064 C   0  0  0  0  0  0  0  0  0  0  0  0
   -2.0792   -0.2594    0.1002 C   0  0  0  0  0  0  0  0  0  0  0  0
   -0.8376   -0.4181    0.9858 C   0  0  0  0  0  0  0  0  0  0  0  0
    0.4111   -0.4404    0.1443 C   0  0  0  0  0  0  0  0  0  0  0  0
    0.6449   -1.2392   -0.7384 O   0  0  0  0  0  0  0  0  0  0  0  0
    1.2473    0.5376    0.4764 O   0  0  0  0  0  0  0  0  0  0  0  0
    2.4756    0.6356   -0.2487 C   0  0  0  0  0  0  0  0  0  0  0  0
   -2.0575    1.9015    0.1169 H   0  0  0  0  0  0  0  0  0  0  0  0
   -1.2418    1.1828   -1.2732 H   0  0  0  0  0  0  0  0  0  0  0  0
   -3.0029    1.1965   -1.1975 H   0  0  0  0  0  0  0  0  0  0  0  0
   -2.0854   -1.0620   -0.6397 H   0  0  0  0  0  0  0  0  0  0  0  0
   -2.9682   -0.3592    0.7233 H   0  0  0  0  0  0  0  0  0  0  0  0
   -0.8946   -1.3674    1.5203 H   0  0  0  0  0  0  0  0  0  0  0  0
   -0.7618    0.4006    1.7001 H   0  0  0  0  0  0  0  0  0  0  0  0
    3.0142    1.4655    0.1975 H   0  0  0  0  0  0  0  0  0  0  0  0
    2.2716    0.8227   -1.3036 H   0  0  0  0  0  0  0  0  0  0  0  0
    3.0383   -0.2939   -0.1567 H   0  0  0  0  0  0  0  0  0  0  0  0
  1  2  1  0  0  0  0
  2  3  1  0  0  0  0
  3  4  1  0  0  0  0
  4  5  2  0  0  0  0
  4  6  1  0  0  0  0
  6  7  1  0  0  0  0
  1  8  1  0  0  0  0
  1  9  1  0  0  0  0
  1 10  1  0  0  0  0
  2 11  1  0  0  0  0
  2 12  1  0  0  0  0
  3 13  1  0  0  0  0
  3 14  1  0  0  0  0
  7 15  1  0  0  0  0
  7 16  1  0  0  0  0
  7 17  1  0  0  0  0
M  END
