 xtb: 6.7.1 (edcfbbe)
          04112511203D

 21 20  0     0  0            999 V2000
   -2.4205   -0.7371   -0.0973 C   0  0  0  0  0  0  0  0  0  0  0  0
   -1.7480    0.5751    0.2942 C   0  0  0  0  0  0  0  0  0  0  0  0
   -0.4428    0.8864   -0.4460 C   0  0  0  0  0  0  0  0  0  0  0  0
    0.8006    0.0464   -0.0522 C   0  0  0  0  0  0  0  0  0  0  0  0
    2.0593    0.8919   -0.2784 C   0  0  0  0  0  0  0  0  0  0  0  0
    0.9035   -1.2327   -0.8913 C   0  0  0  0  0  0  0  0  0  0  0  0
    0.7978   -0.2718    1.3361 O   0  0  0  0  0  0  0  0  0  0  0  0
   -2.5260   -0.8022   -1.1781 H   0  0  0  0  0  0  0  0  0  0  0  0
   -3.4128   -0.7885    0.3459 H   0  0  0  0  0  0  0  0  0  0  0  0
   -1.8604   -1.6020    0.2480 H   0  0  0  0  0  0  0  0  0  0  0  0
   -2.4425    1.3897    0.0751 H   0  0  0  0  0  0  0  0  0  0  0  0
   -1.5613    0.5932    1.3699 H   0  0  0  0  0  0  0  0  0  0  0  0
   -0.5995    0.7821   -1.5205 H   0  0  0  0  0  0  0  0  0  0  0  0
   -0.2076    1.9337   -0.2451 H   0  0  0  0  0  0  0  0  0  0  0  0
    2.0604    1.7336    0.4094 H   0  0  0  0  0  0  0  0  0  0  0  0
    2.0883    1.2603   -1.2990 H   0  0  0  0  0  0  0  0  0  0  0  0
    2.9460    0.2936   -0.0857 H   0  0  0  0  0  0  0  0  0  0  0  0
    1.7589   -1.8172   -0.5587 H   0  0  0  0  0  0  0  0  0  0  0  0
    1.0429   -0.9793   -1.9382 H   0  0  0  0  0  0  0  0  0  0  0  0
    0.0092   -1.8414   -0.7992 H   0  0  0  0  0  0  0  0  0  0  0  0
    0.1451   -0.9655    1.4959 H   0  0  0  0  0  0  0  0  0  0  0  0
  1  2  1  0  0  0  0
  2  3  1  0  0  0  0
  3  4  1  0  0  0  0
  4  5  1  0  0  0  0
  4  6  1  0  0  0  0
  4  7  1  0  0  0  0
  1  8  1  0  0  0  0
  1  9  1  0  0  0  0
  1 10  1  0  0  0  0
  2 11  1  0  0  0  0
  2 12  1  0  0  0  0
  3 13  1  0  0  0  0
  3 14  1  0  0  0  0
  5 15  1  0  0  0  0
  5 16  1  0  0  0  0
  5 17  1  0  0  0  0
  6 18  1  0  0  0  0
  6 19  1  0  0  0  0
  6 20  1  0  0  0  0
  7 21  1  0  0  0  0
M  END
