 xtb: 6.7.1 (edcfbbe)
          04112511223D

 21 21  0     0  0            999 V2000
   -3.7432   -0.9812   -0.7636 C   0  0  0  0  0  0  0  0  0  0  0  0
   -3.0323   -0.2202    0.3432 C   0  0  0  0  0  0  0  0  0  0  0  0
   -1.6172   -0.4468    0.2472 O   0  0  0  0  0  0  0  0  0  0  0  0
   -0.7954    0.5965    0.1951 C   0  0  0  0  0  0  0  0  0  0  0  0
   -1.1748    1.7542    0.2491 O   0  0  0  0  0  0  0  0  0  0  0  0
    0.6238    0.2027    0.0703 C   0  0  0  0  0  0  0  0  0  0  0  0
    1.5922    1.2055    0.0496 C   0  0  0  0  0  0  0  0  0  0  0  0
    2.9287    0.8748   -0.0650 C   0  0  0  0  0  0  0  0  0  0  0  0
    3.3059   -0.4560   -0.1608 C   0  0  0  0  0  0  0  0  0  0  0  0
    2.3459   -1.4566   -0.1421 C   0  0  0  0  0  0  0  0  0  0  0  0
    1.0069   -1.1341   -0.0265 C   0  0  0  0  0  0  0  0  0  0  0  0
   -3.4258   -0.6160   -1.7369 H   0  0  0  0  0  0  0  0  0  0  0  0
   -3.5133   -2.0404   -0.6937 H   0  0  0  0  0  0  0  0  0  0  0  0
   -4.8142   -0.8396   -0.6629 H   0  0  0  0  0  0  0  0  0  0  0  0
   -3.3396   -0.5826    1.3279 H   0  0  0  0  0  0  0  0  0  0  0  0
   -3.2181    0.8563    0.2764 H   0  0  0  0  0  0  0  0  0  0  0  0
    1.2705    2.2334    0.1255 H   0  0  0  0  0  0  0  0  0  0  0  0
    3.6755    1.6531   -0.0798 H   0  0  0  0  0  0  0  0  0  0  0  0
    4.3499   -0.7136   -0.2505 H   0  0  0  0  0  0  0  0  0  0  0  0
    2.6431   -2.4909   -0.2178 H   0  0  0  0  0  0  0  0  0  0  0  0
    0.2523   -1.9039   -0.0105 H   0  0  0  0  0  0  0  0  0  0  0  0
  1  2  1  0  0  0  0
  2  3  1  0  0  0  0
  3  4  1  0  0  0  0
  4  5  2  0  0  0  0
  4  6  1  0  0  0  0
  6  7  4  0  0  0  0
  7  8  4  0  0  0  0
  8  9  4  0  0  0  0
  9 10  4  0  0  0  0
  6 11  4  0  0  0  0
 10 11  4  0  0  0  0
  1 12  1  0  0  0  0
  1 13  1  0  0  0  0
  1 14  1  0  0  0  0
  2 15  1  0  0  0  0
  2 16  1  0  0  0  0
  7 17  1  0  0  0  0
  8 18  1  0  0  0  0
  9 19  1  0  0  0  0
 10 20  1  0  0  0  0
 11 21  1  0  0  0  0
M  END
