 xtb: 6.7.1 (edcfbbe)
          04112511193D

 23 23  0     0  0            999 V2000
   -0.2803    2.1514   -0.9427 C   0  0  0  0  0  0  0  0  0  0  0  0
   -0.1012    0.7249   -0.7600 N   0  0  0  0  0  0  0  0  0  0  0  0
   -1.2500   -0.1057   -0.9420 C   0  0  0  0  0  0  0  0  0  0  0  0
   -2.1268   -0.2179    0.3140 C   0  0  0  0  0  0  0  0  0  0  0  0
   -3.1240   -1.1112    0.1415 F   0  0  0  0  0  0  0  0  0  0  0  0
   -1.4607   -0.6085    1.4104 F   0  0  0  0  0  0  0  0  0  0  0  0
   -2.7266    0.9426    0.6386 F   0  0  0  0  0  0  0  0  0  0  0  0
    1.1348    0.2091   -0.4170 C   0  0  0  0  0  0  0  0  0  0  0  0
    2.2832    1.0042   -0.5176 C   0  0  0  0  0  0  0  0  0  0  0  0
    3.5272    0.5000   -0.1937 C   0  0  0  0  0  0  0  0  0  0  0  0
    3.6737   -0.8081    0.2348 C   0  0  0  0  0  0  0  0  0  0  0  0
    2.5464   -1.6037    0.3406 C   0  0  0  0  0  0  0  0  0  0  0  0
    1.2955   -1.1088    0.0256 C   0  0  0  0  0  0  0  0  0  0  0  0
    0.1931    2.6998   -0.1282 H   0  0  0  0  0  0  0  0  0  0  0  0
   -1.3410    2.3871   -0.9312 H   0  0  0  0  0  0  0  0  0  0  0  0
    0.1427    2.4843   -1.8945 H   0  0  0  0  0  0  0  0  0  0  0  0
   -1.8941    0.3039   -1.7270 H   0  0  0  0  0  0  0  0  0  0  0  0
   -0.9621   -1.1211   -1.2248 H   0  0  0  0  0  0  0  0  0  0  0  0
    2.2130    2.0217   -0.8618 H   0  0  0  0  0  0  0  0  0  0  0  0
    4.3940    1.1383   -0.2833 H   0  0  0  0  0  0  0  0  0  0  0  0
    4.6473   -1.1996    0.4855 H   0  0  0  0  0  0  0  0  0  0  0  0
    2.6359   -2.6248    0.6814 H   0  0  0  0  0  0  0  0  0  0  0  0
    0.4470   -1.7613    0.1557 H   0  0  0  0  0  0  0  0  0  0  0  0
  1  2  1  0  0  0  0
  2  3  1  0  0  0  0
  3  4  1  0  0  0  0
  4  5  1  0  0  0  0
  4  6  1  0  0  0  0
  4  7  1  0  0  0  0
  2  8  1  0  0  0  0
  8  9  4  0  0  0  0
  9 10  4  0  0  0  0
 10 11  4  0  0  0  0
 11 12  4  0  0  0  0
  8 13  4  0  0  0  0
 12 13  4  0  0  0  0
  1 14  1  0  0  0  0
  1 15  1  0  0  0  0
  1 16  1  0  0  0  0
  3 17  1  0  0  0  0
  3 18  1  0  0  0  0
  9 19  1  0  0  0  0
 10 20  1  0  0  0  0
 11 21  1  0  0  0  0
 12 22  1  0  0  0  0
 13 23  1  0  0  0  0
M  END
