 xtb: 6.7.1 (edcfbbe)
          04112511193D

 14 13  0     0  0            999 V2000
   -1.3475   -0.4402   -0.3110 C   0  0  0  0  0  0  0  0  0  0  0  0
    0.0310   -0.0126    0.2264 C   0  0  0  0  0  0  0  0  0  0  0  0
    1.1447   -0.7230   -0.5574 C   0  0  0  0  0  0  0  0  0  0  0  0
    2.3487   -0.6145    0.1679 O   0  0  0  0  0  0  0  0  0  0  0  0
    0.1771    1.3865    0.2193 O   0  0  0  0  0  0  0  0  0  0  0  0
   -2.4041    0.3066    0.2385 O   0  0  0  0  0  0  0  0  0  0  0  0
   -1.4905   -1.5128   -0.1250 H   0  0  0  0  0  0  0  0  0  0  0  0
   -1.3970   -0.2623   -1.3887 H   0  0  0  0  0  0  0  0  0  0  0  0
    0.1294   -0.2918    1.2814 H   0  0  0  0  0  0  0  0  0  0  0  0
    1.2423   -0.2568   -1.5463 H   0  0  0  0  0  0  0  0  0  0  0  0
    0.8669   -1.7773   -0.6859 H   0  0  0  0  0  0  0  0  0  0  0  0
    3.0701   -1.0088   -0.3416 H   0  0  0  0  0  0  0  0  0  0  0  0
    0.0443    1.7204   -0.6795 H   0  0  0  0  0  0  0  0  0  0  0  0
   -2.3504    0.2800    1.2039 H   0  0  0  0  0  0  0  0  0  0  0  0
  1  2  1  0  0  0  0
  2  3  1  0  0  0  0
  3  4  1  0  0  0  0
  2  5  1  0  0  0  0
  1  6  1  0  0  0  0
  1  7  1  0  0  0  0
  1  8  1  0  0  0  0
  2  9  1  0  0  0  0
  3 10  1  0  0  0  0
  3 11  1  0  0  0  0
  4 12  1  0  0  0  0
  5 13  1  0  0  0  0
  6 14  1  0  0  0  0
M  END
