 xtb: 6.7.1 (edcfbbe)
          04112511193D

 14 13  0     0  0            999 V2000
   -1.0858   -0.1505    0.7209 C   0  0  0  0  0  0  0  0  0  0  0  0
    0.2337    0.5467    0.3511 C   0  0  0  0  0  0  0  0  0  0  0  0
    1.1085   -0.3747   -0.5031 C   0  0  0  0  0  0  0  0  0  0  0  0
    1.6665   -1.3525    0.3450 O   0  0  0  0  0  0  0  0  0  0  0  0
   -0.0215    1.7183   -0.3973 O   0  0  0  0  0  0  0  0  0  0  0  0
   -1.8745   -0.4044   -0.4173 O   0  0  0  0  0  0  0  0  0  0  0  0
   -1.6450    0.4698    1.4360 H   0  0  0  0  0  0  0  0  0  0  0  0
   -0.8672   -1.1148    1.1819 H   0  0  0  0  0  0  0  0  0  0  0  0
    0.7884    0.7722    1.2710 H   0  0  0  0  0  0  0  0  0  0  0  0
    1.8895    0.2339   -0.9764 H   0  0  0  0  0  0  0  0  0  0  0  0
    0.4884   -0.8311   -1.2837 H   0  0  0  0  0  0  0  0  0  0  0  0
    2.1707   -1.9828   -0.1874 H   0  0  0  0  0  0  0  0  0  0  0  0
   -0.3591    2.4080    0.1912 H   0  0  0  0  0  0  0  0  0  0  0  0
   -1.8774    0.4012   -0.9592 H   0  0  0  0  0  0  0  0  0  0  0  0
  1  2  1  0  0  0  0
  2  3  1  0  0  0  0
  3  4  1  0  0  0  0
  2  5  1  0  0  0  0
  1  6  1  0  0  0  0
  1  7  1  0  0  0  0
  1  8  1  0  0  0  0
  2  9  1  0  0  0  0
  3 10  1  0  0  0  0
  3 11  1  0  0  0  0
  4 12  1  0  0  0  0
  5 13  1  0  0  0  0
  6 14  1  0  0  0  0
M  END
