 xtb: 6.7.1 (edcfbbe)
          04112511233D

 26 25  0     0  0            999 V2000
   -1.3898   -1.2553    0.6908 C   0  0  0  0  0  0  0  0  0  0  0  0
   -1.0799   -0.3314   -0.4854 C   0  0  0  0  0  0  0  0  0  0  0  0
   -2.3722    0.3701   -0.9165 C   0  0  0  0  0  0  0  0  0  0  0  0
    0.0380    0.7095   -0.2481 C   0  0  0  0  0  0  0  0  0  0  0  0
   -0.2849    1.6819    0.8878 C   0  0  0  0  0  0  0  0  0  0  0  0
    1.4790    0.1578   -0.1005 C   0  0  0  0  0  0  0  0  0  0  0  0
    1.8372   -0.4147    1.2710 C   0  0  0  0  0  0  0  0  0  0  0  0
    1.8234   -0.8589   -1.1891 C   0  0  0  0  0  0  0  0  0  0  0  0
   -0.5668   -1.9329    0.8939 H   0  0  0  0  0  0  0  0  0  0  0  0
   -1.6088   -0.6891    1.5915 H   0  0  0  0  0  0  0  0  0  0  0  0
   -2.2637   -1.8591    0.4532 H   0  0  0  0  0  0  0  0  0  0  0  0
   -0.7623   -0.9558   -1.3266 H   0  0  0  0  0  0  0  0  0  0  0  0
   -2.8284    0.8936   -0.0804 H   0  0  0  0  0  0  0  0  0  0  0  0
   -3.0880   -0.3620   -1.2842 H   0  0  0  0  0  0  0  0  0  0  0  0
   -2.1802    1.0864   -1.7123 H   0  0  0  0  0  0  0  0  0  0  0  0
    0.0646    1.3033   -1.1727 H   0  0  0  0  0  0  0  0  0  0  0  0
   -1.1764    2.2577    0.6562 H   0  0  0  0  0  0  0  0  0  0  0  0
    0.5390    2.3802    1.0207 H   0  0  0  0  0  0  0  0  0  0  0  0
   -0.4467    1.1615    1.8267 H   0  0  0  0  0  0  0  0  0  0  0  0
    2.1323    1.0278   -0.2525 H   0  0  0  0  0  0  0  0  0  0  0  0
    1.6626    0.3109    2.0593 H   0  0  0  0  0  0  0  0  0  0  0  0
    1.2715   -1.3129    1.4943 H   0  0  0  0  0  0  0  0  0  0  0  0
    2.8943   -0.6741    1.2828 H   0  0  0  0  0  0  0  0  0  0  0  0
    1.3131   -1.8032   -1.0173 H   0  0  0  0  0  0  0  0  0  0  0  0
    2.8941   -1.0520   -1.1898 H   0  0  0  0  0  0  0  0  0  0  0  0
    1.5446   -0.4835   -2.1712 H   0  0  0  0  0  0  0  0  0  0  0  0
  1  2  1  0  0  0  0
  2  3  1  0  0  0  0
  2  4  1  0  0  0  0
  4  5  1  0  0  0  0
  4  6  1  0  0  0  0
  6  7  1  0  0  0  0
  6  8  1  0  0  0  0
  1  9  1  0  0  0  0
  1 10  1  0  0  0  0
  1 11  1  0  0  0  0
  2 12  1  0  0  0  0
  3 13  1  0  0  0  0
  3 14  1  0  0  0  0
  3 15  1  0  0  0  0
  4 16  1  0  0  0  0
  5 17  1  0  0  0  0
  5 18  1  0  0  0  0
  5 19  1  0  0  0  0
  6 20  1  0  0  0  0
  7 21  1  0  0  0  0
  7 22  1  0  0  0  0
  7 23  1  0  0  0  0
  8 24  1  0  0  0  0
  8 25  1  0  0  0  0
  8 26  1  0  0  0  0
M  END
