 xtb: 6.7.1 (edcfbbe)
          04112512013D

 22 22  0     0  0            999 V2000
    5.5011   -0.6416   -0.1254 C   0  0  0  0  0  0  0  0  0  0  0  0
    4.4618    0.4669   -0.0138 C   0  0  0  0  0  0  0  0  0  0  0  0
    3.0491   -0.0827   -0.0480 C   0  0  0  0  0  0  0  0  0  0  0  0
    2.7929   -1.2695   -0.1560 O   0  0  0  0  0  0  0  0  0  0  0  0
    2.1062    0.8984    0.0555 N   0  0  0  0  0  0  0  0  0  0  0  0
    0.7194    0.7906    0.0635 C   0  0  0  0  0  0  0  0  0  0  0  0
   -0.0325    1.9620    0.1833 C   0  0  0  0  0  0  0  0  0  0  0  0
   -1.4108    1.9144    0.1972 C   0  0  0  0  0  0  0  0  0  0  0  0
   -2.0661    0.6964    0.0918 C   0  0  0  0  0  0  0  0  0  0  0  0
   -1.3235   -0.4710   -0.0276 C   0  0  0  0  0  0  0  0  0  0  0  0
    0.0593   -0.4315   -0.0424 C   0  0  0  0  0  0  0  0  0  0  0  0
   -2.1242   -2.0035   -0.1605 Cl  0  0  0  0  0  0  0  0  0  0  0  0
   -3.7987    0.6366    0.1095 Cl  0  0  0  0  0  0  0  0  0  0  0  0
    5.3717   -1.1875   -1.0566 H   0  0  0  0  0  0  0  0  0  0  0  0
    5.3867   -1.3492    0.6920 H   0  0  0  0  0  0  0  0  0  0  0  0
    6.5038   -0.2256   -0.0956 H   0  0  0  0  0  0  0  0  0  0  0  0
    4.5784    1.1705   -0.8400 H   0  0  0  0  0  0  0  0  0  0  0  0
    4.5980    1.0116    0.9221 H   0  0  0  0  0  0  0  0  0  0  0  0
    2.4508    1.8470    0.1397 H   0  0  0  0  0  0  0  0  0  0  0  0
    0.4631    2.9158    0.2661 H   0  0  0  0  0  0  0  0  0  0  0  0
   -1.9908    2.8173    0.2896 H   0  0  0  0  0  0  0  0  0  0  0  0
    0.6223   -1.3449   -0.1356 H   0  0  0  0  0  0  0  0  0  0  0  0
  1  2  1  0  0  0  0
  2  3  1  0  0  0  0
  3  4  2  0  0  0  0
  3  5  4  0  0  0  0
  5  6  1  0  0  0  0
  6  7  4  0  0  0  0
  7  8  4  0  0  0  0
  8  9  4  0  0  0  0
  9 10  4  0  0  0  0
  6 11  4  0  0  0  0
 10 11  4  0  0  0  0
 10 12  1  0  0  0  0
  9 13  1  0  0  0  0
  1 14  1  0  0  0  0
  1 15  1  0  0  0  0
  1 16  1  0  0  0  0
  2 17  1  0  0  0  0
  2 18  1  0  0  0  0
  5 19  1  0  0  0  0
  7 20  1  0  0  0  0
  8 21  1  0  0  0  0
 11 22  1  0  0  0  0
M  END
