 xtb: 6.7.1 (edcfbbe)
          04112511223D

 22 21  0     0  0            999 V2000
    2.3257    0.9021    0.4958 C   0  0  0  0  0  0  0  0  0  0  0  0
    1.1493   -0.0717    0.4820 C   0  0  0  0  0  0  0  0  0  0  0  0
    1.5018   -1.3206   -0.3378 C   0  0  0  0  0  0  0  0  0  0  0  0
   -0.0695    0.5762   -0.1446 C   0  0  0  0  0  0  0  0  0  0  0  0
    0.0411    1.5035   -0.9252 O   0  0  0  0  0  0  0  0  0  0  0  0
   -1.4550    0.0317    0.1670 C   0  0  0  0  0  0  0  0  0  0  0  0
   -1.5762   -0.8330    1.4162 C   0  0  0  0  0  0  0  0  0  0  0  0
   -1.9589   -0.7211   -1.0738 C   0  0  0  0  0  0  0  0  0  0  0  0
    3.2048    0.4243    0.9190 H   0  0  0  0  0  0  0  0  0  0  0  0
    2.0833    1.7819    1.0874 H   0  0  0  0  0  0  0  0  0  0  0  0
    2.5525    1.2294   -0.5162 H   0  0  0  0  0  0  0  0  0  0  0  0
    0.9166   -0.3715    1.5048 H   0  0  0  0  0  0  0  0  0  0  0  0
    1.6611   -1.0498   -1.3793 H   0  0  0  0  0  0  0  0  0  0  0  0
    2.4165   -1.7608    0.0501 H   0  0  0  0  0  0  0  0  0  0  0  0
    0.7119   -2.0639   -0.2871 H   0  0  0  0  0  0  0  0  0  0  0  0
   -2.0898    0.9183    0.2855 H   0  0  0  0  0  0  0  0  0  0  0  0
   -1.0019   -1.7501    1.3231 H   0  0  0  0  0  0  0  0  0  0  0  0
   -1.2451   -0.2920    2.2990 H   0  0  0  0  0  0  0  0  0  0  0  0
   -2.6199   -1.1030    1.5589 H   0  0  0  0  0  0  0  0  0  0  0  0
   -1.8508   -0.0980   -1.9587 H   0  0  0  0  0  0  0  0  0  0  0  0
   -1.3958   -1.6384   -1.2233 H   0  0  0  0  0  0  0  0  0  0  0  0
   -3.0084   -0.9739   -0.9499 H   0  0  0  0  0  0  0  0  0  0  0  0
  1  2  1  0  0  0  0
  2  3  1  0  0  0  0
  2  4  1  0  0  0  0
  4  5  2  0  0  0  0
  4  6  1  0  0  0  0
  6  7  1  0  0  0  0
  6  8  1  0  0  0  0
  1  9  1  0  0  0  0
  1 10  1  0  0  0  0
  1 11  1  0  0  0  0
  2 12  1  0  0  0  0
  3 13  1  0  0  0  0
  3 14  1  0  0  0  0
  3 15  1  0  0  0  0
  6 16  1  0  0  0  0
  7 17  1  0  0  0  0
  7 18  1  0  0  0  0
  7 19  1  0  0  0  0
  8 20  1  0  0  0  0
  8 21  1  0  0  0  0
  8 22  1  0  0  0  0
M  END
