 xtb: 6.7.1 (edcfbbe)
          04112511043D

 22 22  0     0  0            999 V2000
   -2.7537   -0.4707    1.4361 C   0  0  0  0  0  0  0  0  0  0  0  0
   -2.0678   -0.2902    0.0834 C   0  0  0  0  0  0  0  0  0  0  0  0
   -3.1110   -0.0601   -1.0078 C   0  0  0  0  0  0  0  0  0  0  0  0
   -1.0581    0.8828    0.1203 C   0  0  0  0  0  0  0  0  0  0  0  0
    0.3592    0.4224    0.0019 C   0  0  0  0  0  0  0  0  0  0  0  0
    0.9417   -0.4566    0.9197 C   0  0  0  0  0  0  0  0  0  0  0  0
    2.1897   -0.8768    0.8035 N   0  0  0  0  0  0  0  0  0  0  0  0
    2.8848   -0.4247   -0.2343 C   0  0  0  0  0  0  0  0  0  0  0  0
    2.3208    0.4511   -1.1491 C   0  0  0  0  0  0  0  0  0  0  0  0
    1.0685    0.8698   -1.0314 N   0  0  0  0  0  0  0  0  0  0  0  0
   -3.3309    0.4165    1.6864 H   0  0  0  0  0  0  0  0  0  0  0  0
   -2.0250   -0.6434    2.2244 H   0  0  0  0  0  0  0  0  0  0  0  0
   -3.4298   -1.3219    1.4060 H   0  0  0  0  0  0  0  0  0  0  0  0
   -1.5247   -1.2124   -0.1540 H   0  0  0  0  0  0  0  0  0  0  0  0
   -2.6334    0.0350   -1.9798 H   0  0  0  0  0  0  0  0  0  0  0  0
   -3.8064   -0.8953   -1.0480 H   0  0  0  0  0  0  0  0  0  0  0  0
   -3.6749    0.8476   -0.8061 H   0  0  0  0  0  0  0  0  0  0  0  0
   -1.1711    1.4307    1.0574 H   0  0  0  0  0  0  0  0  0  0  0  0
   -1.2487    1.5729   -0.7010 H   0  0  0  0  0  0  0  0  0  0  0  0
    0.3928   -0.8325    1.7714 H   0  0  0  0  0  0  0  0  0  0  0  0
    3.9027   -0.7748   -0.3203 H   0  0  0  0  0  0  0  0  0  0  0  0
    2.8733    0.8307   -1.9968 H   0  0  0  0  0  0  0  0  0  0  0  0
  1  2  1  0  0  0  0
  2  3  1  0  0  0  0
  2  4  1  0  0  0  0
  4  5  1  0  0  0  0
  5  6  4  0  0  0  0
  6  7  4  0  0  0  0
  7  8  4  0  0  0  0
  8  9  4  0  0  0  0
  5 10  4  0  0  0  0
  9 10  4  0  0  0  0
  1 11  1  0  0  0  0
  1 12  1  0  0  0  0
  1 13  1  0  0  0  0
  2 14  1  0  0  0  0
  3 15  1  0  0  0  0
  3 16  1  0  0  0  0
  3 17  1  0  0  0  0
  4 18  1  0  0  0  0
  4 19  1  0  0  0  0
  6 20  1  0  0  0  0
  8 21  1  0  0  0  0
  9 22  1  0  0  0  0
M  END
