 xtb: 6.7.1 (edcfbbe)
          04112511193D

 23 23  0     0  0            999 V2000
   -0.1297    2.2214   -1.7175 C   0  0  0  0  0  0  0  0  0  0  0  0
   -0.3381    1.2396   -0.6661 N   0  0  0  0  0  0  0  0  0  0  0  0
   -1.4495    0.3582   -0.9519 C   0  0  0  0  0  0  0  0  0  0  0  0
   -1.7967   -0.4714    0.2709 C   0  0  0  0  0  0  0  0  0  0  0  0
   -0.9353   -1.4780    0.5065 F   0  0  0  0  0  0  0  0  0  0  0  0
   -1.8591    0.2419    1.4023 F   0  0  0  0  0  0  0  0  0  0  0  0
   -3.0047   -1.0612    0.1346 F   0  0  0  0  0  0  0  0  0  0  0  0
    0.8713    0.5534   -0.3043 C   0  0  0  0  0  0  0  0  0  0  0  0
    1.5198   -0.3255   -1.1631 C   0  0  0  0  0  0  0  0  0  0  0  0
    2.6833   -0.9544   -0.7580 C   0  0  0  0  0  0  0  0  0  0  0  0
    3.2045   -0.7100    0.5012 C   0  0  0  0  0  0  0  0  0  0  0  0
    2.5607    0.1678    1.3570 C   0  0  0  0  0  0  0  0  0  0  0  0
    1.3966    0.7994    0.9561 C   0  0  0  0  0  0  0  0  0  0  0  0
    0.0865    1.7676   -2.6928 H   0  0  0  0  0  0  0  0  0  0  0  0
    0.7078    2.8510   -1.4287 H   0  0  0  0  0  0  0  0  0  0  0  0
   -1.0227    2.8374   -1.8022 H   0  0  0  0  0  0  0  0  0  0  0  0
   -2.3273    0.9681   -1.1822 H   0  0  0  0  0  0  0  0  0  0  0  0
   -1.2798   -0.3526   -1.7794 H   0  0  0  0  0  0  0  0  0  0  0  0
    1.1201   -0.5202   -2.1479 H   0  0  0  0  0  0  0  0  0  0  0  0
    3.1835   -1.6377   -1.4277 H   0  0  0  0  0  0  0  0  0  0  0  0
    4.1109   -1.2047    0.8149 H   0  0  0  0  0  0  0  0  0  0  0  0
    2.9631    0.3588    2.3400 H   0  0  0  0  0  0  0  0  0  0  0  0
    0.8778    1.4807    1.6120 H   0  0  0  0  0  0  0  0  0  0  0  0
  1  2  1  0  0  0  0
  2  3  1  0  0  0  0
  3  4  1  0  0  0  0
  4  5  1  0  0  0  0
  4  6  1  0  0  0  0
  4  7  1  0  0  0  0
  2  8  1  0  0  0  0
  8  9  4  0  0  0  0
  9 10  4  0  0  0  0
 10 11  4  0  0  0  0
 11 12  4  0  0  0  0
  8 13  4  0  0  0  0
 12 13  4  0  0  0  0
  1 14  1  0  0  0  0
  1 15  1  0  0  0  0
  1 16  1  0  0  0  0
  3 17  1  0  0  0  0
  3 18  1  0  0  0  0
  9 19  1  0  0  0  0
 10 20  1  0  0  0  0
 11 21  1  0  0  0  0
 12 22  1  0  0  0  0
 13 23  1  0  0  0  0
M  END
