 xtb: 6.7.1 (edcfbbe)
          04112512193D

 17 16  0     0  0            999 V2000
   -2.2999    0.2517    1.0891 C   0  0  0  0  0  0  0  0  0  0  0  0
   -1.8187    0.4546   -0.3510 C   0  0  0  0  0  0  0  0  0  0  0  0
   -0.4526   -0.1627   -0.5014 C   0  0  0  0  0  0  0  0  0  0  0  0
   -0.2462   -1.3306   -0.7596 O   0  0  0  0  0  0  0  0  0  0  0  0
    0.5082    0.7273   -0.2914 O   0  0  0  0  0  0  0  0  0  0  0  0
    1.8756    0.2853   -0.3223 C   0  0  0  0  0  0  0  0  0  0  0  0
    2.3287   -0.1792    1.0534 C   0  0  0  0  0  0  0  0  0  0  0  0
   -2.3303   -0.8087    1.3285 H   0  0  0  0  0  0  0  0  0  0  0  0
   -1.6294    0.7490    1.7854 H   0  0  0  0  0  0  0  0  0  0  0  0
   -3.2966    0.6663    1.2045 H   0  0  0  0  0  0  0  0  0  0  0  0
   -1.7536    1.5174   -0.5782 H   0  0  0  0  0  0  0  0  0  0  0  0
   -2.5005   -0.0402   -1.0418 H   0  0  0  0  0  0  0  0  0  0  0  0
    1.9631   -0.5253   -1.0521 H   0  0  0  0  0  0  0  0  0  0  0  0
    2.4411    1.1568   -0.6535 H   0  0  0  0  0  0  0  0  0  0  0  0
    1.7496   -1.0464    1.3631 H   0  0  0  0  0  0  0  0  0  0  0  0
    3.3780   -0.4525    1.0133 H   0  0  0  0  0  0  0  0  0  0  0  0
    2.1925    0.6165    1.7808 H   0  0  0  0  0  0  0  0  0  0  0  0
  1  2  1  0  0  0  0
  2  3  1  0  0  0  0
  3  4  2  0  0  0  0
  3  5  1  0  0  0  0
  5  6  1  0  0  0  0
  6  7  1  0  0  0  0
  1  8  1  0  0  0  0
  1  9  1  0  0  0  0
  1 10  1  0  0  0  0
  2 11  1  0  0  0  0
  2 12  1  0  0  0  0
  6 13  1  0  0  0  0
  6 14  1  0  0  0  0
  7 15  1  0  0  0  0
  7 16  1  0  0  0  0
  7 17  1  0  0  0  0
M  END
