 xtb: 6.7.1 (edcfbbe)
          04112511233D

 26 25  0     0  0            999 V2000
   -1.6343    0.1518    1.5145 C   0  0  0  0  0  0  0  0  0  0  0  0
   -1.2702   -0.4631    0.1624 C   0  0  0  0  0  0  0  0  0  0  0  0
   -2.4948   -0.3981   -0.7533 C   0  0  0  0  0  0  0  0  0  0  0  0
   -0.0464    0.1827   -0.5352 C   0  0  0  0  0  0  0  0  0  0  0  0
    0.0656    1.6812   -0.2592 C   0  0  0  0  0  0  0  0  0  0  0  0
    1.2632   -0.5903   -0.2584 C   0  0  0  0  0  0  0  0  0  0  0  0
    2.4046   -0.0799   -1.1404 C   0  0  0  0  0  0  0  0  0  0  0  0
    1.7090   -0.5860    1.2021 C   0  0  0  0  0  0  0  0  0  0  0  0
   -2.4056   -0.4513    1.9900 H   0  0  0  0  0  0  0  0  0  0  0  0
   -0.7801    0.1950    2.1822 H   0  0  0  0  0  0  0  0  0  0  0  0
   -2.0259    1.1575    1.3886 H   0  0  0  0  0  0  0  0  0  0  0  0
   -1.0363   -1.5217    0.3257 H   0  0  0  0  0  0  0  0  0  0  0  0
   -2.3118   -0.9308   -1.6839 H   0  0  0  0  0  0  0  0  0  0  0  0
   -2.7390    0.6351   -0.9908 H   0  0  0  0  0  0  0  0  0  0  0  0
   -3.3572   -0.8482   -0.2666 H   0  0  0  0  0  0  0  0  0  0  0  0
   -0.2180    0.0738   -1.6138 H   0  0  0  0  0  0  0  0  0  0  0  0
   -0.8791    2.1711   -0.4822 H   0  0  0  0  0  0  0  0  0  0  0  0
    0.8262    2.1260   -0.8949 H   0  0  0  0  0  0  0  0  0  0  0  0
    0.3201    1.8825    0.7766 H   0  0  0  0  0  0  0  0  0  0  0  0
    1.0713   -1.6329   -0.5434 H   0  0  0  0  0  0  0  0  0  0  0  0
    2.7387    0.9013   -0.8135 H   0  0  0  0  0  0  0  0  0  0  0  0
    3.2521   -0.7594   -1.0831 H   0  0  0  0  0  0  0  0  0  0  0  0
    2.0909   -0.0132   -2.1798 H   0  0  0  0  0  0  0  0  0  0  0  0
    0.9770   -1.0760    1.8373 H   0  0  0  0  0  0  0  0  0  0  0  0
    1.8673    0.4280    1.5594 H   0  0  0  0  0  0  0  0  0  0  0  0
    2.6491   -1.1259    1.2968 H   0  0  0  0  0  0  0  0  0  0  0  0
  1  2  1  0  0  0  0
  2  3  1  0  0  0  0
  2  4  1  0  0  0  0
  4  5  1  0  0  0  0
  4  6  1  0  0  0  0
  6  7  1  0  0  0  0
  6  8  1  0  0  0  0
  1  9  1  0  0  0  0
  1 10  1  0  0  0  0
  1 11  1  0  0  0  0
  2 12  1  0  0  0  0
  3 13  1  0  0  0  0
  3 14  1  0  0  0  0
  3 15  1  0  0  0  0
  4 16  1  0  0  0  0
  5 17  1  0  0  0  0
  5 18  1  0  0  0  0
  5 19  1  0  0  0  0
  6 20  1  0  0  0  0
  7 21  1  0  0  0  0
  7 22  1  0  0  0  0
  7 23  1  0  0  0  0
  8 24  1  0  0  0  0
  8 25  1  0  0  0  0
  8 26  1  0  0  0  0
M  END
