 xtb: 6.7.1 (edcfbbe)
          04112511523D

 13 12  0     0  0            999 V2000
    1.7146   -1.2344   -0.9805 C   0  0  0  0  0  0  0  0  0  0  0  0
    1.4797   -0.2546    0.0467 O   0  0  0  0  0  0  0  0  0  0  0  0
    0.0625    0.3809    0.0571 S   0  0  0  0  0  0  0  0  0  0  0  0
   -0.3382    0.7854   -1.2603 O   0  0  0  0  0  0  0  0  0  0  0  0
    0.0468    1.3877    1.0723 O   0  0  0  0  0  0  0  0  0  0  0  0
   -0.7917   -0.8668    0.5055 O   0  0  0  0  0  0  0  0  0  0  0  0
   -2.2145   -0.6613    0.5179 C   0  0  0  0  0  0  0  0  0  0  0  0
    1.2842   -2.1841   -0.6665 H   0  0  0  0  0  0  0  0  0  0  0  0
    2.7944   -1.3048   -1.0870 H   0  0  0  0  0  0  0  0  0  0  0  0
    1.2466   -0.8877   -1.9010 H   0  0  0  0  0  0  0  0  0  0  0  0
   -2.5745   -0.9292    1.5094 H   0  0  0  0  0  0  0  0  0  0  0  0
   -2.6535   -1.3013   -0.2461 H   0  0  0  0  0  0  0  0  0  0  0  0
   -2.4240    0.3848    0.3032 H   0  0  0  0  0  0  0  0  0  0  0  0
  1  2  1  0  0  0  0
  2  3  1  0  0  0  0
  3  4  2  0  0  0  0
  3  5  2  0  0  0  0
  3  6  1  0  0  0  0
  6  7  1  0  0  0  0
  1  8  1  0  0  0  0
  1  9  1  0  0  0  0
  1 10  1  0  0  0  0
  7 11  1  0  0  0  0
  7 12  1  0  0  0  0
  7 13  1  0  0  0  0
M  END
