 xtb: 6.7.1 (edcfbbe)
          04112511193D

 14 13  0     0  0            999 V2000
   -1.3330    0.3039    0.0038 C   0  0  0  0  0  0  0  0  0  0  0  0
    0.1437    0.6540    0.2650 C   0  0  0  0  0  0  0  0  0  0  0  0
    1.0848   -0.2832   -0.5005 C   0  0  0  0  0  0  0  0  0  0  0  0
    1.2524   -1.4552    0.2653 O   0  0  0  0  0  0  0  0  0  0  0  0
    0.4293    1.9744   -0.1391 O   0  0  0  0  0  0  0  0  0  0  0  0
   -1.6050   -1.0744    0.0551 O   0  0  0  0  0  0  0  0  0  0  0  0
   -1.5981    0.6275   -1.0072 H   0  0  0  0  0  0  0  0  0  0  0  0
   -1.9689    0.8419    0.7231 H   0  0  0  0  0  0  0  0  0  0  0  0
    0.3694    0.5221    1.3355 H   0  0  0  0  0  0  0  0  0  0  0  0
    2.0390    0.2412   -0.6365 H   0  0  0  0  0  0  0  0  0  0  0  0
    0.6573   -0.5092   -1.4838 H   0  0  0  0  0  0  0  0  0  0  0  0
    1.7945   -2.0843   -0.2290 H   0  0  0  0  0  0  0  0  0  0  0  0
   -0.1164    2.5950    0.3642 H   0  0  0  0  0  0  0  0  0  0  0  0
   -1.1506   -1.4620    0.8171 H   0  0  0  0  0  0  0  0  0  0  0  0
  1  2  1  0  0  0  0
  2  3  1  0  0  0  0
  3  4  1  0  0  0  0
  2  5  1  0  0  0  0
  1  6  1  0  0  0  0
  1  7  1  0  0  0  0
  1  8  1  0  0  0  0
  2  9  1  0  0  0  0
  3 10  1  0  0  0  0
  3 11  1  0  0  0  0
  4 12  1  0  0  0  0
  5 13  1  0  0  0  0
  6 14  1  0  0  0  0
M  END
