 xtb: 6.7.1 (edcfbbe)
          04112511193D

 14 13  0     0  0            999 V2000
   -1.0181   -0.4205   -0.3492 C   0  0  0  0  0  0  0  0  0  0  0  0
    0.1491    0.3457    0.2827 C   0  0  0  0  0  0  0  0  0  0  0  0
    1.4815   -0.1038   -0.3305 C   0  0  0  0  0  0  0  0  0  0  0  0
    1.6991   -1.4506    0.0200 O   0  0  0  0  0  0  0  0  0  0  0  0
   -0.0896    1.7198    0.0584 O   0  0  0  0  0  0  0  0  0  0  0  0
   -2.2385   -0.1561    0.2963 O   0  0  0  0  0  0  0  0  0  0  0  0
   -0.8368   -1.4918   -0.2541 H   0  0  0  0  0  0  0  0  0  0  0  0
   -1.0797   -0.1509   -1.4121 H   0  0  0  0  0  0  0  0  0  0  0  0
    0.1639    0.1235    1.3595 H   0  0  0  0  0  0  0  0  0  0  0  0
    2.2879    0.5317    0.0607 H   0  0  0  0  0  0  0  0  0  0  0  0
    1.4291    0.0205   -1.4199 H   0  0  0  0  0  0  0  0  0  0  0  0
    2.5289   -1.7548   -0.3737 H   0  0  0  0  0  0  0  0  0  0  0  0
    0.5657    2.2517    0.5298 H   0  0  0  0  0  0  0  0  0  0  0  0
   -2.3740    0.8033    0.2924 H   0  0  0  0  0  0  0  0  0  0  0  0
  1  2  1  0  0  0  0
  2  3  1  0  0  0  0
  3  4  1  0  0  0  0
  2  5  1  0  0  0  0
  1  6  1  0  0  0  0
  1  7  1  0  0  0  0
  1  8  1  0  0  0  0
  2  9  1  0  0  0  0
  3 10  1  0  0  0  0
  3 11  1  0  0  0  0
  4 12  1  0  0  0  0
  5 13  1  0  0  0  0
  6 14  1  0  0  0  0
M  END
