 xtb: 6.7.1 (edcfbbe)
          04112511193D

 14 13  0     0  0            999 V2000
   -1.0761   -0.4686   -0.3477 C   0  0  0  0  0  0  0  0  0  0  0  0
   -0.0140    0.2086    0.5364 C   0  0  0  0  0  0  0  0  0  0  0  0
    1.2785   -0.6239    0.6101 C   0  0  0  0  0  0  0  0  0  0  0  0
    1.9156   -0.7151   -0.6461 O   0  0  0  0  0  0  0  0  0  0  0  0
    0.2759    1.5140    0.0927 O   0  0  0  0  0  0  0  0  0  0  0  0
   -2.3373    0.0803   -0.0329 O   0  0  0  0  0  0  0  0  0  0  0  0
   -1.0756   -1.5481   -0.1430 H   0  0  0  0  0  0  0  0  0  0  0  0
   -0.8337   -0.2918   -1.4026 H   0  0  0  0  0  0  0  0  0  0  0  0
   -0.4366    0.3201    1.5399 H   0  0  0  0  0  0  0  0  0  0  0  0
    1.0685   -1.6126    1.0283 H   0  0  0  0  0  0  0  0  0  0  0  0
    1.9851   -0.1058    1.2624 H   0  0  0  0  0  0  0  0  0  0  0  0
    1.4697   -1.3738   -1.1947 H   0  0  0  0  0  0  0  0  0  0  0  0
    0.8949    1.4439   -0.6520 H   0  0  0  0  0  0  0  0  0  0  0  0
   -3.0011   -0.2575   -0.6502 H   0  0  0  0  0  0  0  0  0  0  0  0
  1  2  1  0  0  0  0
  2  3  1  0  0  0  0
  3  4  1  0  0  0  0
  2  5  1  0  0  0  0
  1  6  1  0  0  0  0
  1  7  1  0  0  0  0
  1  8  1  0  0  0  0
  2  9  1  0  0  0  0
  3 10  1  0  0  0  0
  3 11  1  0  0  0  0
  4 12  1  0  0  0  0
  5 13  1  0  0  0  0
  6 14  1  0  0  0  0
M  END
