 xtb: 6.7.1 (edcfbbe)
          04112511403D

 22 22  0     0  0            999 V2000
   -4.3081    0.3418   -0.0176 C   0  0  0  0  0  0  0  0  0  0  0  0
   -2.8294    0.7111   -0.0638 C   0  0  0  0  0  0  0  0  0  0  0  0
   -1.9526   -0.4863    0.2969 C   0  0  0  0  0  0  0  0  0  0  0  0
   -0.4688   -0.2753    0.1402 C   0  0  0  0  0  0  0  0  0  0  0  0
    0.3653   -1.3897    0.0877 C   0  0  0  0  0  0  0  0  0  0  0  0
    1.7330   -1.2627   -0.0362 C   0  0  0  0  0  0  0  0  0  0  0  0
    2.3093    0.0018   -0.1147 C   0  0  0  0  0  0  0  0  0  0  0  0
    1.4907    1.1210   -0.0640 C   0  0  0  0  0  0  0  0  0  0  0  0
    0.1191    0.9787    0.0639 C   0  0  0  0  0  0  0  0  0  0  0  0
    3.6645    0.0870   -0.2399 O   0  0  0  0  0  0  0  0  0  0  0  0
   -4.5838   -0.0029    0.9766 H   0  0  0  0  0  0  0  0  0  0  0  0
   -4.9239    1.2028   -0.2656 H   0  0  0  0  0  0  0  0  0  0  0  0
   -4.5266   -0.4524   -0.7280 H   0  0  0  0  0  0  0  0  0  0  0  0
   -2.6477    1.5278    0.6371 H   0  0  0  0  0  0  0  0  0  0  0  0
   -2.5728    1.0590   -1.0669 H   0  0  0  0  0  0  0  0  0  0  0  0
   -2.2442   -1.3360   -0.3266 H   0  0  0  0  0  0  0  0  0  0  0  0
   -2.1528   -0.7712    1.3351 H   0  0  0  0  0  0  0  0  0  0  0  0
   -0.0674   -2.3779    0.1459 H   0  0  0  0  0  0  0  0  0  0  0  0
    2.3748   -2.1290   -0.0765 H   0  0  0  0  0  0  0  0  0  0  0  0
    1.9224    2.1101   -0.1240 H   0  0  0  0  0  0  0  0  0  0  0  0
   -0.4879    1.8690    0.1021 H   0  0  0  0  0  0  0  0  0  0  0  0
    3.9413    1.0143   -0.2849 H   0  0  0  0  0  0  0  0  0  0  0  0
  1  2  1  0  0  0  0
  2  3  1  0  0  0  0
  3  4  1  0  0  0  0
  4  5  4  0  0  0  0
  5  6  4  0  0  0  0
  6  7  4  0  0  0  0
  7  8  4  0  0  0  0
  4  9  4  0  0  0  0
  8  9  4  0  0  0  0
  7 10  1  0  0  0  0
  1 11  1  0  0  0  0
  1 12  1  0  0  0  0
  1 13  1  0  0  0  0
  2 14  1  0  0  0  0
  2 15  1  0  0  0  0
  3 16  1  0  0  0  0
  3 17  1  0  0  0  0
  5 18  1  0  0  0  0
  6 19  1  0  0  0  0
  8 20  1  0  0  0  0
  9 21  1  0  0  0  0
 10 22  1  0  0  0  0
M  END
