 xtb: 6.7.1 (edcfbbe)
          04112511103D

 18 17  0     0  0            999 V2000
    2.7327   -0.2655    0.1009 C   0  0  0  0  0  0  0  0  0  0  0  0
    1.2649   -0.1382    0.4937 C   0  0  0  0  0  0  0  0  0  0  0  0
    0.3649   -0.1374   -0.7416 C   0  0  0  0  0  0  0  0  0  0  0  0
   -1.1344    0.0576   -0.4549 C   0  0  0  0  0  0  0  0  0  0  0  0
   -1.6655    0.0105   -1.4139 H   0  0  0  0  0  0  0  0  0  0  0  0
   -1.7042   -1.0104    0.4779 C   0  0  0  0  0  0  0  0  0  0  0  0
   -1.4171    1.3628    0.0220 O   0  0  0  0  0  0  0  0  0  0  0  0
    3.3652   -0.2689    0.9852 H   0  0  0  0  0  0  0  0  0  0  0  0
    3.0320    0.5660   -0.5333 H   0  0  0  0  0  0  0  0  0  0  0  0
    2.9008   -1.1902   -0.4464 H   0  0  0  0  0  0  0  0  0  0  0  0
    1.0004   -0.9714    1.1463 H   0  0  0  0  0  0  0  0  0  0  0  0
    1.1286    0.7910    1.0510 H   0  0  0  0  0  0  0  0  0  0  0  0
    0.6803    0.6692   -1.4078 H   0  0  0  0  0  0  0  0  0  0  0  0
    0.4865   -1.0802   -1.2774 H   0  0  0  0  0  0  0  0  0  0  0  0
   -1.2603   -0.9349    1.4674 H   0  0  0  0  0  0  0  0  0  0  0  0
   -2.7791   -0.8771    0.5722 H   0  0  0  0  0  0  0  0  0  0  0  0
   -1.5061   -1.9990    0.0753 H   0  0  0  0  0  0  0  0  0  0  0  0
   -1.0477    1.4538    0.9112 H   0  0  0  0  0  0  0  0  0  0  0  0
  1  2  1  0  0  0  0
  2  3  1  0  0  0  0
  3  4  1  0  0  0  0
  4  5  1  0  0  0  0
  4  6  1  0  0  0  0
  4  7  1  0  0  0  0
  1  8  1  0  0  0  0
  1  9  1  0  0  0  0
  1 10  1  0  0  0  0
  2 11  1  0  0  0  0
  2 12  1  0  0  0  0
  3 13  1  0  0  0  0
  3 14  1  0  0  0  0
  6 15  1  0  0  0  0
  6 16  1  0  0  0  0
  6 17  1  0  0  0  0
  7 18  1  0  0  0  0
M  END
