 xtb: 6.7.1 (edcfbbe)
          04112511493D

 21 20  0     0  0            999 V2000
    1.5450    0.2634   -1.1710 C   0  0  0  0  0  0  0  0  0  0  0  0
    1.1106   -0.2279    0.2058 C   0  0  0  0  0  0  0  0  0  0  0  0
    0.9347   -1.3132    0.1614 H   0  0  0  0  0  0  0  0  0  0  0  0
   -0.1348    0.4780    0.7642 C   0  0  0  0  0  0  0  0  0  0  0  0
   -1.5074    0.1356    0.1595 C   0  0  0  0  0  0  0  0  0  0  0  0
   -1.7484    0.7580   -1.2146 C   0  0  0  0  0  0  0  0  0  0  0  0
   -1.7661   -1.3695    0.1150 C   0  0  0  0  0  0  0  0  0  0  0  0
    2.2197    0.0089    1.0699 O   0  0  0  0  0  0  0  0  0  0  0  0
    1.5504    1.3494   -1.1981 H   0  0  0  0  0  0  0  0  0  0  0  0
    2.5557   -0.0899   -1.3611 H   0  0  0  0  0  0  0  0  0  0  0  0
    0.8900   -0.1164   -1.9462 H   0  0  0  0  0  0  0  0  0  0  0  0
   -0.1858    0.2317    1.8296 H   0  0  0  0  0  0  0  0  0  0  0  0
    0.0273    1.5561    0.6913 H   0  0  0  0  0  0  0  0  0  0  0  0
   -2.2419    0.5785    0.8439 H   0  0  0  0  0  0  0  0  0  0  0  0
   -1.1749    0.2523   -1.9849 H   0  0  0  0  0  0  0  0  0  0  0  0
   -1.4766    1.8104   -1.2142 H   0  0  0  0  0  0  0  0  0  0  0  0
   -2.8016    0.6768   -1.4744 H   0  0  0  0  0  0  0  0  0  0  0  0
   -1.5739   -1.8233    1.0844 H   0  0  0  0  0  0  0  0  0  0  0  0
   -2.8030   -1.5594   -0.1521 H   0  0  0  0  0  0  0  0  0  0  0  0
   -1.1339   -1.8503   -0.6272 H   0  0  0  0  0  0  0  0  0  0  0  0
    2.0038   -0.2910    1.9627 H   0  0  0  0  0  0  0  0  0  0  0  0
  1  2  1  0  0  0  0
  2  3  1  0  0  0  0
  2  4  1  0  0  0  0
  4  5  1  0  0  0  0
  5  6  1  0  0  0  0
  5  7  1  0  0  0  0
  2  8  1  0  0  0  0
  1  9  1  0  0  0  0
  1 10  1  0  0  0  0
  1 11  1  0  0  0  0
  4 12  1  0  0  0  0
  4 13  1  0  0  0  0
  5 14  1  0  0  0  0
  6 15  1  0  0  0  0
  6 16  1  0  0  0  0
  6 17  1  0  0  0  0
  7 18  1  0  0  0  0
  7 19  1  0  0  0  0
  7 20  1  0  0  0  0
  8 21  1  0  0  0  0
M  END
