 xtb: 6.7.1 (edcfbbe)
          04112511203D

 21 20  0     0  0            999 V2000
   -2.2802    0.6410    0.7232 C   0  0  0  0  0  0  0  0  0  0  0  0
   -1.7411    0.3242   -0.6688 C   0  0  0  0  0  0  0  0  0  0  0  0
   -0.5521   -0.6415   -0.6940 C   0  0  0  0  0  0  0  0  0  0  0  0
    0.7713   -0.1807   -0.0422 C   0  0  0  0  0  0  0  0  0  0  0  0
    1.1006    1.2803   -0.3654 C   0  0  0  0  0  0  0  0  0  0  0  0
    1.9047   -1.0813   -0.5485 C   0  0  0  0  0  0  0  0  0  0  0  0
    0.7434   -0.3836    1.3690 O   0  0  0  0  0  0  0  0  0  0  0  0
   -3.2445    1.1383    0.6425 H   0  0  0  0  0  0  0  0  0  0  0  0
   -1.6154    1.3062    1.2694 H   0  0  0  0  0  0  0  0  0  0  0  0
   -2.4164   -0.2727    1.2974 H   0  0  0  0  0  0  0  0  0  0  0  0
   -2.5409   -0.1451   -1.2470 H   0  0  0  0  0  0  0  0  0  0  0  0
   -1.4772    1.2512   -1.1794 H   0  0  0  0  0  0  0  0  0  0  0  0
   -0.8415   -1.5742   -0.2026 H   0  0  0  0  0  0  0  0  0  0  0  0
   -0.3384   -0.8731   -1.7390 H   0  0  0  0  0  0  0  0  0  0  0  0
    0.3743    1.9553    0.0796 H   0  0  0  0  0  0  0  0  0  0  0  0
    1.1101    1.4313   -1.4408 H   0  0  0  0  0  0  0  0  0  0  0  0
    2.0823    1.5258    0.0332 H   0  0  0  0  0  0  0  0  0  0  0  0
    1.6545   -2.1238   -0.3709 H   0  0  0  0  0  0  0  0  0  0  0  0
    2.8170   -0.8525   -0.0038 H   0  0  0  0  0  0  0  0  0  0  0  0
    2.0717   -0.9262   -1.6096 H   0  0  0  0  0  0  0  0  0  0  0  0
    0.0567    0.1741    1.7559 H   0  0  0  0  0  0  0  0  0  0  0  0
  1  2  1  0  0  0  0
  2  3  1  0  0  0  0
  3  4  1  0  0  0  0
  4  5  1  0  0  0  0
  4  6  1  0  0  0  0
  4  7  1  0  0  0  0
  1  8  1  0  0  0  0
  1  9  1  0  0  0  0
  1 10  1  0  0  0  0
  2 11  1  0  0  0  0
  2 12  1  0  0  0  0
  3 13  1  0  0  0  0
  3 14  1  0  0  0  0
  5 15  1  0  0  0  0
  5 16  1  0  0  0  0
  5 17  1  0  0  0  0
  6 18  1  0  0  0  0
  6 19  1  0  0  0  0
  6 20  1  0  0  0  0
  7 21  1  0  0  0  0
M  END
