 xtb: 6.7.1 (edcfbbe)
          04112512243D

 23 22  0     0  0            999 V2000
    2.0645    1.3851   -0.5568 C   0  0  0  0  0  0  0  0  0  0  0  0
    1.6148    0.2514    0.3587 C   0  0  0  0  0  0  0  0  0  0  0  0
    0.4096   -0.5442   -0.1645 C   0  0  0  0  0  0  0  0  0  0  0  0
    0.6651   -0.8962   -1.1721 H   0  0  0  0  0  0  0  0  0  0  0  0
    0.2042   -1.7735    0.7218 C   0  0  0  0  0  0  0  0  0  0  0  0
   -0.8649    0.3133   -0.3075 C   0  0  0  0  0  0  0  0  0  0  0  0
   -1.9406   -0.4193   -1.1113 C   0  0  0  0  0  0  0  0  0  0  0  0
   -1.4466    0.7740    1.0277 C   0  0  0  0  0  0  0  0  0  0  0  0
    2.2186    1.0186   -1.5695 H   0  0  0  0  0  0  0  0  0  0  0  0
    1.3307    2.1862   -0.5876 H   0  0  0  0  0  0  0  0  0  0  0  0
    3.0019    1.8035   -0.1975 H   0  0  0  0  0  0  0  0  0  0  0  0
    1.3904    0.6516    1.3489 H   0  0  0  0  0  0  0  0  0  0  0  0
    2.4472   -0.4472    0.4752 H   0  0  0  0  0  0  0  0  0  0  0  0
   -0.6459   -2.3613    0.3884 H   0  0  0  0  0  0  0  0  0  0  0  0
    1.0871   -2.4081    0.6840 H   0  0  0  0  0  0  0  0  0  0  0  0
    0.0444   -1.4811    1.7563 H   0  0  0  0  0  0  0  0  0  0  0  0
   -0.5884    1.2043   -0.8807 H   0  0  0  0  0  0  0  0  0  0  0  0
   -2.7683    0.2531   -1.3260 H   0  0  0  0  0  0  0  0  0  0  0  0
   -2.3341   -1.2680   -0.5576 H   0  0  0  0  0  0  0  0  0  0  0  0
   -1.5386   -0.7789   -2.0559 H   0  0  0  0  0  0  0  0  0  0  0  0
   -2.2845    1.4450    0.8509 H   0  0  0  0  0  0  0  0  0  0  0  0
   -0.7063    1.3084    1.6169 H   0  0  0  0  0  0  0  0  0  0  0  0
   -1.8088   -0.0721    1.6056 H   0  0  0  0  0  0  0  0  0  0  0  0
  1  2  1  0  0  0  0
  2  3  1  0  0  0  0
  3  4  1  0  0  0  0
  3  5  1  0  0  0  0
  3  6  1  0  0  0  0
  6  7  1  0  0  0  0
  6  8  1  0  0  0  0
  1  9  1  0  0  0  0
  1 10  1  0  0  0  0
  1 11  1  0  0  0  0
  2 12  1  0  0  0  0
  2 13  1  0  0  0  0
  5 14  1  0  0  0  0
  5 15  1  0  0  0  0
  5 16  1  0  0  0  0
  6 17  1  0  0  0  0
  7 18  1  0  0  0  0
  7 19  1  0  0  0  0
  7 20  1  0  0  0  0
  8 21  1  0  0  0  0
  8 22  1  0  0  0  0
  8 23  1  0  0  0  0
M  END
