 xtb: 6.7.1 (edcfbbe)
          04112510483D

 27 27  0     0  0            999 V2000
   -2.8498   -2.2603    1.3115 C   0  0  0  0  0  0  0  0  0  0  0  0
   -3.3709   -0.8966    0.8729 C   0  0  0  0  0  0  0  0  0  0  0  0
   -2.7791   -0.3300   -0.4276 C   0  0  0  0  0  0  0  0  0  0  0  0
   -3.4089    0.5227   -0.7085 H   0  0  0  0  0  0  0  0  0  0  0  0
   -2.7715   -1.3098   -1.5927 C   0  0  0  0  0  0  0  0  0  0  0  0
   -1.4537    0.2897   -0.1963 N   0  0  0  0  0  0  0  0  0  0  0  0
   -0.2791   -0.4621   -0.1846 C   0  0  0  0  0  0  0  0  0  0  0  0
   -0.2687   -1.6734   -0.2990 O   0  0  0  0  0  0  0  0  0  0  0  0
    0.9320    0.3167   -0.0208 C   0  0  0  0  0  0  0  0  0  0  0  0
    0.9365    1.6584    0.1727 C   0  0  0  0  0  0  0  0  0  0  0  0
   -0.2768    2.2752    0.2026 N   0  0  0  0  0  0  0  0  0  0  0  0
   -1.4840    1.6486    0.0318 C   0  0  0  0  0  0  0  0  0  0  0  0
   -2.5156    2.2975    0.0791 O   0  0  0  0  0  0  0  0  0  0  0  0
    2.1559    2.4827    0.3604 C   0  0  0  0  0  0  0  0  0  0  0  0
    2.5487   -0.6801   -0.0598 Br  0  0  0  0  0  0  0  0  0  0  0  0
   -3.2685   -2.5122    2.2827 H   0  0  0  0  0  0  0  0  0  0  0  0
   -3.1428   -3.0299    0.6036 H   0  0  0  0  0  0  0  0  0  0  0  0
   -1.7667   -2.2690    1.3912 H   0  0  0  0  0  0  0  0  0  0  0  0
   -4.4504   -0.9655    0.7283 H   0  0  0  0  0  0  0  0  0  0  0  0
   -3.1959   -0.1622    1.6635 H   0  0  0  0  0  0  0  0  0  0  0  0
   -2.4028   -0.8192   -2.4909 H   0  0  0  0  0  0  0  0  0  0  0  0
   -2.1482   -2.1736   -1.3883 H   0  0  0  0  0  0  0  0  0  0  0  0
   -3.7912   -1.6388   -1.7690 H   0  0  0  0  0  0  0  0  0  0  0  0
   -0.3292    3.2765    0.3628 H   0  0  0  0  0  0  0  0  0  0  0  0
    2.8512    2.3097   -0.4591 H   0  0  0  0  0  0  0  0  0  0  0  0
    2.6659    2.1861    1.2759 H   0  0  0  0  0  0  0  0  0  0  0  0
    1.9110    3.5379    0.4120 H   0  0  0  0  0  0  0  0  0  0  0  0
  1  2  1  0  0  0  0
  2  3  1  0  0  0  0
  3  4  1  0  0  0  0
  3  5  1  0  0  0  0
  3  6  1  0  0  0  0
  6  7  1  0  0  0  0
  7  8  2  0  0  0  0
  7  9  1  0  0  0  0
  9 10  2  0  0  0  0
 10 11  1  0  0  0  0
  6 12  1  0  0  0  0
 11 12  1  0  0  0  0
 12 13  2  0  0  0  0
 10 14  1  0  0  0  0
  9 15  1  0  0  0  0
  1 16  1  0  0  0  0
  1 17  1  0  0  0  0
  1 18  1  0  0  0  0
  2 19  1  0  0  0  0
  2 20  1  0  0  0  0
  5 21  1  0  0  0  0
  5 22  1  0  0  0  0
  5 23  1  0  0  0  0
 11 24  1  0  0  0  0
 14 25  1  0  0  0  0
 14 26  1  0  0  0  0
 14 27  1  0  0  0  0
M  END
