 xtb: 6.7.1 (edcfbbe)
          04112511523D

 13 12  0     0  0            999 V2000
   -2.3506   -0.2086   -0.1685 C   0  0  0  0  0  0  0  0  0  0  0  0
   -1.1083    0.0341    0.4562 O   0  0  0  0  0  0  0  0  0  0  0  0
   -0.0679    0.2926   -0.4658 C   0  0  0  0  0  0  0  0  0  0  0  0
    1.2438    0.4660    0.3041 C   0  0  0  0  0  0  0  0  0  0  0  0
    2.1566   -0.5206   -0.1292 O   0  0  0  0  0  0  0  0  0  0  0  0
   -2.2956   -1.0885   -0.8185 H   0  0  0  0  0  0  0  0  0  0  0  0
   -2.6633    0.6566   -0.7632 H   0  0  0  0  0  0  0  0  0  0  0  0
   -3.0639   -0.3839    0.6325 H   0  0  0  0  0  0  0  0  0  0  0  0
    0.0492   -0.5556   -1.1554 H   0  0  0  0  0  0  0  0  0  0  0  0
   -0.3092    1.1895   -1.0529 H   0  0  0  0  0  0  0  0  0  0  0  0
    1.0158    0.3496    1.3703 H   0  0  0  0  0  0  0  0  0  0  0  0
    1.6588    1.4658    0.1313 H   0  0  0  0  0  0  0  0  0  0  0  0
    2.9641   -0.4657    0.4000 H   0  0  0  0  0  0  0  0  0  0  0  0
  1  2  1  0  0  0  0
  2  3  1  0  0  0  0
  3  4  1  0  0  0  0
  4  5  1  0  0  0  0
  1  6  1  0  0  0  0
  1  7  1  0  0  0  0
  1  8  1  0  0  0  0
  3  9  1  0  0  0  0
  3 10  1  0  0  0  0
  4 11  1  0  0  0  0
  4 12  1  0  0  0  0
  5 13  1  0  0  0  0
M  END
