 xtb: 6.7.1 (edcfbbe)
          04112512193D

 17 16  0     0  0            999 V2000
   -2.6604   -0.1325   -0.7348 C   0  0  0  0  0  0  0  0  0  0  0  0
   -1.7291    0.6837    0.1588 C   0  0  0  0  0  0  0  0  0  0  0  0
   -0.4126   -0.0236    0.3596 C   0  0  0  0  0  0  0  0  0  0  0  0
   -0.2921   -1.1956    0.6487 O   0  0  0  0  0  0  0  0  0  0  0  0
    0.6137    0.8032    0.1978 O   0  0  0  0  0  0  0  0  0  0  0  0
    1.9451    0.2831    0.3552 C   0  0  0  0  0  0  0  0  0  0  0  0
    2.4450   -0.3437   -0.9374 C   0  0  0  0  0  0  0  0  0  0  0  0
   -2.7588   -1.1412   -0.3408 H   0  0  0  0  0  0  0  0  0  0  0  0
   -3.6413    0.3308   -0.7735 H   0  0  0  0  0  0  0  0  0  0  0  0
   -2.2620   -0.1952   -1.7442 H   0  0  0  0  0  0  0  0  0  0  0  0
   -2.1829    0.8004    1.1453 H   0  0  0  0  0  0  0  0  0  0  0  0
   -1.5342    1.6702   -0.2590 H   0  0  0  0  0  0  0  0  0  0  0  0
    2.5457    1.1485    0.6363 H   0  0  0  0  0  0  0  0  0  0  0  0
    1.9381   -0.4548    1.1632 H   0  0  0  0  0  0  0  0  0  0  0  0
    3.4739   -0.6630   -0.8086 H   0  0  0  0  0  0  0  0  0  0  0  0
    1.8358   -1.2086   -1.1908 H   0  0  0  0  0  0  0  0  0  0  0  0
    2.3910    0.3777   -1.7484 H   0  0  0  0  0  0  0  0  0  0  0  0
  1  2  1  0  0  0  0
  2  3  1  0  0  0  0
  3  4  2  0  0  0  0
  3  5  1  0  0  0  0
  5  6  1  0  0  0  0
  6  7  1  0  0  0  0
  1  8  1  0  0  0  0
  1  9  1  0  0  0  0
  1 10  1  0  0  0  0
  2 11  1  0  0  0  0
  2 12  1  0  0  0  0
  6 13  1  0  0  0  0
  6 14  1  0  0  0  0
  7 15  1  0  0  0  0
  7 16  1  0  0  0  0
  7 17  1  0  0  0  0
M  END
