 xtb: 6.7.1 (edcfbbe)
          04112511173D

 35 35  0     0  0            999 V2000
   -0.2256   -2.8457   -0.1631 C   0  0  0  0  0  0  0  0  0  0  0  0
    0.5331   -1.5636   -0.0428 C   0  0  0  0  0  0  0  0  0  0  0  0
    1.9019   -1.4610   -0.3397 C   0  0  0  0  0  0  0  0  0  0  0  0
    2.5632   -0.3243   -0.2255 N   0  0  0  0  0  0  0  0  0  0  0  0
    1.8976    0.7667    0.1864 C   0  0  0  0  0  0  0  0  0  0  0  0
    0.5810    0.7759    0.4731 N   0  0  0  0  0  0  0  0  0  0  0  0
   -0.0556   -0.3690    0.3481 C   0  0  0  0  0  0  0  0  0  0  0  0
   -1.4074   -0.3269    0.6853 O   0  0  0  0  0  0  0  0  0  0  0  0
   -2.2625   -0.0094   -0.3295 C   0  0  0  0  0  0  0  0  0  0  0  0
   -1.8867    0.0974   -1.4880 O   0  0  0  0  0  0  0  0  0  0  0  0
   -3.5210    0.1423    0.0843 N   0  0  0  0  0  0  0  0  0  0  0  0
   -4.5687    0.4203   -0.8754 C   0  0  0  0  0  0  0  0  0  0  0  0
   -3.9435    0.0163    1.4625 C   0  0  0  0  0  0  0  0  0  0  0  0
    2.5798    1.9077    0.3228 N   0  0  0  0  0  0  0  0  0  0  0  0
    1.9485    3.1348    0.7415 C   0  0  0  0  0  0  0  0  0  0  0  0
    3.9899    1.9910    0.0277 C   0  0  0  0  0  0  0  0  0  0  0  0
    2.6792   -2.6473   -0.8050 C   0  0  0  0  0  0  0  0  0  0  0  0
   -0.3182   -3.1309   -1.2110 H   0  0  0  0  0  0  0  0  0  0  0  0
    0.2899   -3.6445    0.3660 H   0  0  0  0  0  0  0  0  0  0  0  0
   -1.2236   -2.7322    0.2534 H   0  0  0  0  0  0  0  0  0  0  0  0
   -4.1264    0.4672   -1.8675 H   0  0  0  0  0  0  0  0  0  0  0  0
   -5.0408    1.3742   -0.6402 H   0  0  0  0  0  0  0  0  0  0  0  0
   -5.3164   -0.3724   -0.8432 H   0  0  0  0  0  0  0  0  0  0  0  0
   -4.5312    0.8928    1.7342 H   0  0  0  0  0  0  0  0  0  0  0  0
   -3.0747   -0.0528    2.1093 H   0  0  0  0  0  0  0  0  0  0  0  0
   -4.5583   -0.8773    1.5816 H   0  0  0  0  0  0  0  0  0  0  0  0
    2.0643    3.8939   -0.0342 H   0  0  0  0  0  0  0  0  0  0  0  0
    2.4131    3.4935    1.6616 H   0  0  0  0  0  0  0  0  0  0  0  0
    0.8934    2.9477    0.9128 H   0  0  0  0  0  0  0  0  0  0  0  0
    4.5287    2.3376    0.9107 H   0  0  0  0  0  0  0  0  0  0  0  0
    4.1566    2.6955   -0.7890 H   0  0  0  0  0  0  0  0  0  0  0  0
    4.3466    1.0072   -0.2593 H   0  0  0  0  0  0  0  0  0  0  0  0
    3.6982   -2.3478   -1.0256 H   0  0  0  0  0  0  0  0  0  0  0  0
    2.6845   -3.4136   -0.0326 H   0  0  0  0  0  0  0  0  0  0  0  0
    2.2173   -3.0677   -1.6953 H   0  0  0  0  0  0  0  0  0  0  0  0
  1  2  1  0  0  0  0
  2  3  4  0  0  0  0
  3  4  4  0  0  0  0
  4  5  4  0  0  0  0
  5  6  4  0  0  0  0
  2  7  4  0  0  0  0
  6  7  4  0  0  0  0
  7  8  1  0  0  0  0
  8  9  1  0  0  0  0
  9 10  2  0  0  0  0
  9 11  4  0  0  0  0
 11 12  1  0  0  0  0
 11 13  1  0  0  0  0
  5 14  4  0  0  0  0
 14 15  1  0  0  0  0
 14 16  1  0  0  0  0
  3 17  1  0  0  0  0
  1 18  1  0  0  0  0
  1 19  1  0  0  0  0
  1 20  1  0  0  0  0
 12 21  1  0  0  0  0
 12 22  1  0  0  0  0
 12 23  1  0  0  0  0
 13 24  1  0  0  0  0
 13 25  1  0  0  0  0
 13 26  1  0  0  0  0
 15 27  1  0  0  0  0
 15 28  1  0  0  0  0
 15 29  1  0  0  0  0
 16 30  1  0  0  0  0
 16 31  1  0  0  0  0
 16 32  1  0  0  0  0
 17 33  1  0  0  0  0
 17 34  1  0  0  0  0
 17 35  1  0  0  0  0
M  END
