 xtb: 6.7.1 (edcfbbe)
          04112511173D

 35 35  0     0  0            999 V2000
    0.2136   -3.3786    0.1145 C   0  0  0  0  0  0  0  0  0  0  0  0
    0.6725   -1.9563    0.0680 C   0  0  0  0  0  0  0  0  0  0  0  0
    2.0131   -1.5886   -0.0837 C   0  0  0  0  0  0  0  0  0  0  0  0
    2.4041   -0.3230   -0.1242 N   0  0  0  0  0  0  0  0  0  0  0  0
    1.4710    0.6315   -0.0160 C   0  0  0  0  0  0  0  0  0  0  0  0
    0.1548    0.3828    0.1308 N   0  0  0  0  0  0  0  0  0  0  0  0
   -0.2115   -0.8831    0.1715 C   0  0  0  0  0  0  0  0  0  0  0  0
   -1.5502   -1.1335    0.3010 O   0  0  0  0  0  0  0  0  0  0  0  0
   -2.3183   -0.0113    0.6191 C   0  0  0  0  0  0  0  0  0  0  0  0
   -2.5787    0.2209    1.7855 O   0  0  0  0  0  0  0  0  0  0  0  0
   -2.7568    0.6776   -0.4257 N   0  0  0  0  0  0  0  0  0  0  0  0
   -3.5218    1.8898   -0.2175 C   0  0  0  0  0  0  0  0  0  0  0  0
   -2.4085    0.3801   -1.7981 C   0  0  0  0  0  0  0  0  0  0  0  0
    1.8559    1.9117   -0.0704 N   0  0  0  0  0  0  0  0  0  0  0  0
    3.2379    2.2832   -0.2523 C   0  0  0  0  0  0  0  0  0  0  0  0
    0.9153    2.9978    0.0587 C   0  0  0  0  0  0  0  0  0  0  0  0
    3.0829   -2.6230   -0.2111 C   0  0  0  0  0  0  0  0  0  0  0  0
    0.4034   -3.8737   -0.8371 H   0  0  0  0  0  0  0  0  0  0  0  0
    0.7446   -3.9248    0.8923 H   0  0  0  0  0  0  0  0  0  0  0  0
   -0.8521   -3.4124    0.3242 H   0  0  0  0  0  0  0  0  0  0  0  0
   -2.9868    2.7358   -0.6486 H   0  0  0  0  0  0  0  0  0  0  0  0
   -3.6486    2.0411    0.8516 H   0  0  0  0  0  0  0  0  0  0  0  0
   -4.4979    1.7941   -0.6920 H   0  0  0  0  0  0  0  0  0  0  0  0
   -1.5485    0.9781   -2.1066 H   0  0  0  0  0  0  0  0  0  0  0  0
   -3.2623    0.6180   -2.4288 H   0  0  0  0  0  0  0  0  0  0  0  0
   -2.1653   -0.6741   -1.9051 H   0  0  0  0  0  0  0  0  0  0  0  0
    3.5930    2.8381    0.6181 H   0  0  0  0  0  0  0  0  0  0  0  0
    3.3347    2.9129   -1.1380 H   0  0  0  0  0  0  0  0  0  0  0  0
    3.8276    1.3804   -0.3748 H   0  0  0  0  0  0  0  0  0  0  0  0
    0.8442    3.5471   -0.8825 H   0  0  0  0  0  0  0  0  0  0  0  0
    1.2495    3.6793    0.8420 H   0  0  0  0  0  0  0  0  0  0  0  0
   -0.0575    2.5924    0.3222 H   0  0  0  0  0  0  0  0  0  0  0  0
    4.0428   -2.1361   -0.3467 H   0  0  0  0  0  0  0  0  0  0  0  0
    3.1111   -3.2397    0.6847 H   0  0  0  0  0  0  0  0  0  0  0  0
    2.8754   -3.2709   -1.0596 H   0  0  0  0  0  0  0  0  0  0  0  0
  1  2  1  0  0  0  0
  2  3  4  0  0  0  0
  3  4  4  0  0  0  0
  4  5  4  0  0  0  0
  5  6  4  0  0  0  0
  2  7  4  0  0  0  0
  6  7  4  0  0  0  0
  7  8  1  0  0  0  0
  8  9  1  0  0  0  0
  9 10  2  0  0  0  0
  9 11  4  0  0  0  0
 11 12  1  0  0  0  0
 11 13  1  0  0  0  0
  5 14  4  0  0  0  0
 14 15  1  0  0  0  0
 14 16  1  0  0  0  0
  3 17  1  0  0  0  0
  1 18  1  0  0  0  0
  1 19  1  0  0  0  0
  1 20  1  0  0  0  0
 12 21  1  0  0  0  0
 12 22  1  0  0  0  0
 12 23  1  0  0  0  0
 13 24  1  0  0  0  0
 13 25  1  0  0  0  0
 13 26  1  0  0  0  0
 15 27  1  0  0  0  0
 15 28  1  0  0  0  0
 15 29  1  0  0  0  0
 16 30  1  0  0  0  0
 16 31  1  0  0  0  0
 16 32  1  0  0  0  0
 17 33  1  0  0  0  0
 17 34  1  0  0  0  0
 17 35  1  0  0  0  0
M  END
