 xtb: 6.7.1 (edcfbbe)
          04112511513D

 19 19  0     0  0            999 V2000
    1.7272   -2.4280    0.8842 C   0  0  0  0  0  0  0  0  0  0  0  0
    0.9663   -1.8127   -0.1567 O   0  0  0  0  0  0  0  0  0  0  0  0
    0.6879   -0.4871   -0.0533 C   0  0  0  0  0  0  0  0  0  0  0  0
    1.6504    0.5250    0.0215 C   0  0  0  0  0  0  0  0  0  0  0  0
    1.2838    1.8580    0.1223 C   0  0  0  0  0  0  0  0  0  0  0  0
   -0.0485    2.2230    0.1328 C   0  0  0  0  0  0  0  0  0  0  0  0
   -1.0173    1.2389    0.0325 C   0  0  0  0  0  0  0  0  0  0  0  0
   -0.6661   -0.1048   -0.0622 C   0  0  0  0  0  0  0  0  0  0  0  0
   -1.7182   -1.1625   -0.1470 C   0  0  0  0  0  0  0  0  0  0  0  0
   -2.6534   -1.2406    0.6208 O   0  0  0  0  0  0  0  0  0  0  0  0
   -1.5215   -1.9971   -1.1426 O   0  0  0  0  0  0  0  0  0  0  0  0
   -2.6850    1.6897    0.0020 Cl  0  0  0  0  0  0  0  0  0  0  0  0
    3.3405    0.1586   -0.0854 Cl  0  0  0  0  0  0  0  0  0  0  0  0
    2.7571   -2.0734    0.9100 H   0  0  0  0  0  0  0  0  0  0  0  0
    1.7095   -3.4886    0.6469 H   0  0  0  0  0  0  0  0  0  0  0  0
    1.2530   -2.2545    1.8529 H   0  0  0  0  0  0  0  0  0  0  0  0
    2.0521    2.6117    0.1794 H   0  0  0  0  0  0  0  0  0  0  0  0
   -0.3372    3.2574    0.2050 H   0  0  0  0  0  0  0  0  0  0  0  0
   -2.1907   -2.7101   -1.1832 H   0  0  0  0  0  0  0  0  0  0  0  0
  1  2  1  0  0  0  0
  2  3  1  0  0  0  0
  3  4  4  0  0  0  0
  4  5  4  0  0  0  0
  5  6  4  0  0  0  0
  6  7  4  0  0  0  0
  3  8  4  0  0  0  0
  7  8  4  0  0  0  0
  8  9  1  0  0  0  0
  9 10  2  0  0  0  0
  9 11  4  0  0  0  0
  7 12  1  0  0  0  0
  4 13  1  0  0  0  0
  1 14  1  0  0  0  0
  1 15  1  0  0  0  0
  1 16  1  0  0  0  0
  5 17  1  0  0  0  0
  6 18  1  0  0  0  0
 11 19  1  0  0  0  0
M  END
