 xtb: 6.7.1 (edcfbbe)
          04112511443D

 25 25  0     0  0            999 V2000
    2.8765   -1.0348    0.8826 C   0  0  0  0  0  0  0  0  0  0  0  0
    2.5481    0.2048    0.1058 C   0  0  0  0  0  0  0  0  0  0  0  0
    3.4924    1.0240   -0.3311 C   0  0  0  0  0  0  0  0  0  0  0  0
    1.0899    0.4829   -0.1709 C   0  0  0  0  0  0  0  0  0  0  0  0
    1.0170    1.4853   -0.6028 H   0  0  0  0  0  0  0  0  0  0  0  0
    0.5136   -0.5255   -1.1911 C   0  0  0  0  0  0  0  0  0  0  0  0
   -0.7477   -1.2450   -0.6881 C   0  0  0  0  0  0  0  0  0  0  0  0
   -1.6885   -0.2510   -0.0800 C   0  0  0  0  0  0  0  0  0  0  0  0
   -1.1730    0.6045    0.8230 C   0  0  0  0  0  0  0  0  0  0  0  0
    0.2691    0.5050    1.1407 C   0  0  0  0  0  0  0  0  0  0  0  0
   -3.0808   -0.2063   -0.4705 C   0  0  0  0  0  0  0  0  0  0  0  0
   -3.9236    0.5528   -0.0224 O   0  0  0  0  0  0  0  0  0  0  0  0
    2.2464   -1.8673    0.5799 H   0  0  0  0  0  0  0  0  0  0  0  0
    3.9172   -1.3105    0.7363 H   0  0  0  0  0  0  0  0  0  0  0  0
    2.7226   -0.8611    1.9470 H   0  0  0  0  0  0  0  0  0  0  0  0
    3.2617    1.9235   -0.8766 H   0  0  0  0  0  0  0  0  0  0  0  0
    4.5378    0.8288   -0.1619 H   0  0  0  0  0  0  0  0  0  0  0  0
    0.2611    0.0082   -2.1078 H   0  0  0  0  0  0  0  0  0  0  0  0
    1.2675   -1.2697   -1.4492 H   0  0  0  0  0  0  0  0  0  0  0  0
   -1.2204   -1.7826   -1.5100 H   0  0  0  0  0  0  0  0  0  0  0  0
   -0.4649   -1.9743    0.0753 H   0  0  0  0  0  0  0  0  0  0  0  0
   -1.7934    1.3567    1.2861 H   0  0  0  0  0  0  0  0  0  0  0  0
    0.6047    1.3267    1.7712 H   0  0  0  0  0  0  0  0  0  0  0  0
    0.4401   -0.4347    1.6715 H   0  0  0  0  0  0  0  0  0  0  0  0
   -3.3685   -0.9428   -1.2451 H   0  0  0  0  0  0  0  0  0  0  0  0
  1  2  1  0  0  0  0
  2  3  2  0  0  0  0
  2  4  1  0  0  0  0
  4  5  1  0  0  0  0
  4  6  1  0  0  0  0
  6  7  1  0  0  0  0
  7  8  1  0  0  0  0
  8  9  2  0  0  0  0
  4 10  1  0  0  0  0
  9 10  1  0  0  0  0
  8 11  1  0  0  0  0
 11 12  2  0  0  0  0
  1 13  1  0  0  0  0
  1 14  1  0  0  0  0
  1 15  1  0  0  0  0
  3 16  1  0  0  0  0
  3 17  1  0  0  0  0
  6 18  1  0  0  0  0
  6 19  1  0  0  0  0
  7 20  1  0  0  0  0
  7 21  1  0  0  0  0
  9 22  1  0  0  0  0
 10 23  1  0  0  0  0
 10 24  1  0  0  0  0
 11 25  1  0  0  0  0
M  END
