 xtb: 6.7.1 (edcfbbe)
          04112512193D

 17 16  0     0  0            999 V2000
   -2.4775    0.9696   -0.3457 C   0  0  0  0  0  0  0  0  0  0  0  0
   -1.7736    0.0729    0.6771 C   0  0  0  0  0  0  0  0  0  0  0  0
   -0.5177   -0.4903    0.0639 C   0  0  0  0  0  0  0  0  0  0  0  0
   -0.4290   -1.5885   -0.4474 O   0  0  0  0  0  0  0  0  0  0  0  0
    0.4812    0.3765    0.1244 O   0  0  0  0  0  0  0  0  0  0  0  0
    1.7541    0.0198   -0.4411 C   0  0  0  0  0  0  0  0  0  0  0  0
    2.8536    0.6150    0.4199 C   0  0  0  0  0  0  0  0  0  0  0  0
   -1.8326    1.7982   -0.6261 H   0  0  0  0  0  0  0  0  0  0  0  0
   -2.7262    0.4006   -1.2385 H   0  0  0  0  0  0  0  0  0  0  0  0
   -3.3930    1.3652    0.0833 H   0  0  0  0  0  0  0  0  0  0  0  0
   -2.4213   -0.7564    0.9586 H   0  0  0  0  0  0  0  0  0  0  0  0
   -1.5046    0.6572    1.5559 H   0  0  0  0  0  0  0  0  0  0  0  0
    1.8182   -1.0719   -0.4904 H   0  0  0  0  0  0  0  0  0  0  0  0
    1.7866    0.4227   -1.4578 H   0  0  0  0  0  0  0  0  0  0  0  0
    2.7365    1.6932    0.4763 H   0  0  0  0  0  0  0  0  0  0  0  0
    2.8094    0.2044    1.4248 H   0  0  0  0  0  0  0  0  0  0  0  0
    3.8181    0.3810   -0.0185 H   0  0  0  0  0  0  0  0  0  0  0  0
  1  2  1  0  0  0  0
  2  3  1  0  0  0  0
  3  4  2  0  0  0  0
  3  5  1  0  0  0  0
  5  6  1  0  0  0  0
  6  7  1  0  0  0  0
  1  8  1  0  0  0  0
  1  9  1  0  0  0  0
  1 10  1  0  0  0  0
  2 11  1  0  0  0  0
  2 12  1  0  0  0  0
  6 13  1  0  0  0  0
  6 14  1  0  0  0  0
  7 15  1  0  0  0  0
  7 16  1  0  0  0  0
  7 17  1  0  0  0  0
M  END
