 xtb: 6.7.1 (edcfbbe)
          04112511153D

 29 28  0     0  0            999 V2000
   -2.6985   -0.9381   -0.8086 C   0  0  0  0  0  0  0  0  0  0  0  0
   -1.8935   -0.2412    0.2865 C   0  0  0  0  0  0  0  0  0  0  0  0
   -2.8372    0.5283    1.2099 C   0  0  0  0  0  0  0  0  0  0  0  0
   -0.8503    0.7105   -0.3152 C   0  0  0  0  0  0  0  0  0  0  0  0
    0.3665    0.0012   -0.9275 C   0  0  0  0  0  0  0  0  0  0  0  0
    1.6514   -0.0017   -0.0759 C   0  0  0  0  0  0  0  0  0  0  0  0
    2.6983   -0.8501   -0.8078 C   0  0  0  0  0  0  0  0  0  0  0  0
    2.2012    1.4187    0.0799 C   0  0  0  0  0  0  0  0  0  0  0  0
    1.4045   -0.6117    1.3051 C   0  0  0  0  0  0  0  0  0  0  0  0
   -2.0475   -1.4785   -1.4911 H   0  0  0  0  0  0  0  0  0  0  0  0
   -3.2634   -0.2069   -1.3834 H   0  0  0  0  0  0  0  0  0  0  0  0
   -3.3992   -1.6472   -0.3733 H   0  0  0  0  0  0  0  0  0  0  0  0
   -1.3783   -1.0038    0.8783 H   0  0  0  0  0  0  0  0  0  0  0  0
   -3.3414    1.3203    0.6599 H   0  0  0  0  0  0  0  0  0  0  0  0
   -3.5923   -0.1357    1.6243 H   0  0  0  0  0  0  0  0  0  0  0  0
   -2.2889    0.9789    2.0344 H   0  0  0  0  0  0  0  0  0  0  0  0
   -1.3446    1.3092   -1.0835 H   0  0  0  0  0  0  0  0  0  0  0  0
   -0.5203    1.4032    0.4592 H   0  0  0  0  0  0  0  0  0  0  0  0
    0.6103    0.4711   -1.8828 H   0  0  0  0  0  0  0  0  0  0  0  0
    0.1026   -1.0362   -1.1418 H   0  0  0  0  0  0  0  0  0  0  0  0
    2.8951   -0.4458   -1.7983 H   0  0  0  0  0  0  0  0  0  0  0  0
    3.6333   -0.8643   -0.2524 H   0  0  0  0  0  0  0  0  0  0  0  0
    2.3521   -1.8754   -0.9194 H   0  0  0  0  0  0  0  0  0  0  0  0
    3.1398    1.3997    0.6293 H   0  0  0  0  0  0  0  0  0  0  0  0
    2.3837    1.8653   -0.8950 H   0  0  0  0  0  0  0  0  0  0  0  0
    1.5078    2.0557    0.6225 H   0  0  0  0  0  0  0  0  0  0  0  0
    0.6899   -0.0224    1.8727 H   0  0  0  0  0  0  0  0  0  0  0  0
    2.3346   -0.6500    1.8683 H   0  0  0  0  0  0  0  0  0  0  0  0
    1.0222   -1.6257    1.2110 H   0  0  0  0  0  0  0  0  0  0  0  0
  1  2  1  0  0  0  0
  2  3  1  0  0  0  0
  2  4  1  0  0  0  0
  4  5  1  0  0  0  0
  5  6  1  0  0  0  0
  6  7  1  0  0  0  0
  6  8  1  0  0  0  0
  6  9  1  0  0  0  0
  1 10  1  0  0  0  0
  1 11  1  0  0  0  0
  1 12  1  0  0  0  0
  2 13  1  0  0  0  0
  3 14  1  0  0  0  0
  3 15  1  0  0  0  0
  3 16  1  0  0  0  0
  4 17  1  0  0  0  0
  4 18  1  0  0  0  0
  5 19  1  0  0  0  0
  5 20  1  0  0  0  0
  7 21  1  0  0  0  0
  7 22  1  0  0  0  0
  7 23  1  0  0  0  0
  8 24  1  0  0  0  0
  8 25  1  0  0  0  0
  8 26  1  0  0  0  0
  9 27  1  0  0  0  0
  9 28  1  0  0  0  0
  9 29  1  0  0  0  0
M  END
