 xtb: 6.7.1 (edcfbbe)
          04112511493D

 21 20  0     0  0            999 V2000
    1.6911   -0.0861    1.3377 C   0  0  0  0  0  0  0  0  0  0  0  0
    1.1837    0.4839    0.0149 C   0  0  0  0  0  0  0  0  0  0  0  0
    0.8618    1.5259    0.1678 H   0  0  0  0  0  0  0  0  0  0  0  0
    0.0253   -0.3286   -0.5731 C   0  0  0  0  0  0  0  0  0  0  0  0
   -1.2619   -0.3653    0.2554 C   0  0  0  0  0  0  0  0  0  0  0  0
   -1.8720    1.0240    0.4293 C   0  0  0  0  0  0  0  0  0  0  0  0
   -2.2685   -1.2923   -0.4259 C   0  0  0  0  0  0  0  0  0  0  0  0
    2.2054    0.4689   -0.9752 O   0  0  0  0  0  0  0  0  0  0  0  0
    1.9907   -1.1227    1.2034 H   0  0  0  0  0  0  0  0  0  0  0  0
    2.5481    0.4830    1.6918 H   0  0  0  0  0  0  0  0  0  0  0  0
    0.9129   -0.0354    2.0924 H   0  0  0  0  0  0  0  0  0  0  0  0
   -0.1922    0.0875   -1.5598 H   0  0  0  0  0  0  0  0  0  0  0  0
    0.3878   -1.3478   -0.7251 H   0  0  0  0  0  0  0  0  0  0  0  0
   -1.0374   -0.7768    1.2444 H   0  0  0  0  0  0  0  0  0  0  0  0
   -2.8278    0.9511    0.9428 H   0  0  0  0  0  0  0  0  0  0  0  0
   -2.0376    1.4873   -0.5408 H   0  0  0  0  0  0  0  0  0  0  0  0
   -1.2226    1.6694    1.0145 H   0  0  0  0  0  0  0  0  0  0  0  0
   -3.1815   -1.3598    0.1607 H   0  0  0  0  0  0  0  0  0  0  0  0
   -2.5214   -0.9145   -1.4140 H   0  0  0  0  0  0  0  0  0  0  0  0
   -1.8564   -2.2924   -0.5364 H   0  0  0  0  0  0  0  0  0  0  0  0
    2.9853    0.9270   -0.6341 H   0  0  0  0  0  0  0  0  0  0  0  0
  1  2  1  0  0  0  0
  2  3  1  0  0  0  0
  2  4  1  0  0  0  0
  4  5  1  0  0  0  0
  5  6  1  0  0  0  0
  5  7  1  0  0  0  0
  2  8  1  0  0  0  0
  1  9  1  0  0  0  0
  1 10  1  0  0  0  0
  1 11  1  0  0  0  0
  4 12  1  0  0  0  0
  4 13  1  0  0  0  0
  5 14  1  0  0  0  0
  6 15  1  0  0  0  0
  6 16  1  0  0  0  0
  6 17  1  0  0  0  0
  7 18  1  0  0  0  0
  7 19  1  0  0  0  0
  7 20  1  0  0  0  0
  8 21  1  0  0  0  0
M  END
