 xtb: 6.7.1 (edcfbbe)
          04072508503D

 19 19  0     0  0            999 V2000
   -2.6092   -0.1771   -0.3837 C   0  0  0  0  0  0  0  0  0  0  0  0
   -1.6630   -1.1826   -0.4588 C   0  0  0  0  0  0  0  0  0  0  0  0
   -0.3498   -0.9402   -0.0893 C   0  0  0  0  0  0  0  0  0  0  0  0
    0.0405    0.3136    0.3577 C   0  0  0  0  0  0  0  0  0  0  0  0
   -0.9212    1.3184    0.4277 C   0  0  0  0  0  0  0  0  0  0  0  0
   -2.2324    1.0789    0.0630 C   0  0  0  0  0  0  0  0  0  0  0  0
    1.4469    0.6478    0.7860 C   0  0  0  0  0  0  0  0  0  0  0  0
    2.5171   -0.3808    0.4313 C   0  0  0  0  0  0  0  0  0  0  0  0
    2.6124   -0.4963   -0.9754 O   0  0  0  0  0  0  0  0  0  0  0  0
   -3.6317   -0.3678   -0.6736 H   0  0  0  0  0  0  0  0  0  0  0  0
   -1.9454   -2.1648   -0.8086 H   0  0  0  0  0  0  0  0  0  0  0  0
    0.3686   -1.7398   -0.1684 H   0  0  0  0  0  0  0  0  0  0  0  0
   -0.6329    2.3014    0.7723 H   0  0  0  0  0  0  0  0  0  0  0  0
   -2.9616    1.8733    0.1237 H   0  0  0  0  0  0  0  0  0  0  0  0
    1.7269    1.5978    0.3245 H   0  0  0  0  0  0  0  0  0  0  0  0
    1.4601    0.7871    1.8704 H   0  0  0  0  0  0  0  0  0  0  0  0
    3.4749   -0.0380    0.8467 H   0  0  0  0  0  0  0  0  0  0  0  0
    2.2765   -1.3521    0.8840 H   0  0  0  0  0  0  0  0  0  0  0  0
    3.3339   -1.0974   -1.2012 H   0  0  0  0  0  0  0  0  0  0  0  0
  1  2  4  0  0  0  0
  2  3  4  0  0  0  0
  3  4  4  0  0  0  0
  4  5  4  0  0  0  0
  1  6  4  0  0  0  0
  5  6  4  0  0  0  0
  4  7  1  0  0  0  0
  7  8  1  0  0  0  0
  8  9  1  0  0  0  0
  1 10  1  0  0  0  0
  2 11  1  0  0  0  0
  3 12  1  0  0  0  0
  5 13  1  0  0  0  0
  6 14  1  0  0  0  0
  7 15  1  0  0  0  0
  7 16  1  0  0  0  0
  8 17  1  0  0  0  0
  8 18  1  0  0  0  0
  9 19  1  0  0  0  0
M  END
