 xtb: 6.7.1 (edcfbbe)
          04112511443D

 25 25  0     0  0            999 V2000
    1.6501   -0.5115    1.7225 C   0  0  0  0  0  0  0  0  0  0  0  0
    2.2571   -0.1891    0.3907 C   0  0  0  0  0  0  0  0  0  0  0  0
    3.5378   -0.4079    0.1350 C   0  0  0  0  0  0  0  0  0  0  0  0
    1.3441    0.3940   -0.6629 C   0  0  0  0  0  0  0  0  0  0  0  0
    1.9736    0.7786   -1.4694 H   0  0  0  0  0  0  0  0  0  0  0  0
    0.4212   -0.7037   -1.2352 C   0  0  0  0  0  0  0  0  0  0  0  0
   -1.0330   -0.2394   -1.3817 C   0  0  0  0  0  0  0  0  0  0  0  0
   -1.5047    0.2932   -0.0637 C   0  0  0  0  0  0  0  0  0  0  0  0
   -0.7084    1.1729    0.5695 C   0  0  0  0  0  0  0  0  0  0  0  0
    0.5454    1.5953   -0.0959 C   0  0  0  0  0  0  0  0  0  0  0  0
   -2.7416   -0.1743    0.5185 C   0  0  0  0  0  0  0  0  0  0  0  0
   -3.4963   -0.9956    0.0260 O   0  0  0  0  0  0  0  0  0  0  0  0
    1.4712    0.4026    2.2866 H   0  0  0  0  0  0  0  0  0  0  0  0
    0.6952   -1.0198    1.6061 H   0  0  0  0  0  0  0  0  0  0  0  0
    2.3167   -1.1433    2.3033 H   0  0  0  0  0  0  0  0  0  0  0  0
    3.9802   -0.1655   -0.8163 H   0  0  0  0  0  0  0  0  0  0  0  0
    4.1978   -0.8435    0.8660 H   0  0  0  0  0  0  0  0  0  0  0  0
    0.7956   -1.0300   -2.2049 H   0  0  0  0  0  0  0  0  0  0  0  0
    0.4341   -1.5734   -0.5758 H   0  0  0  0  0  0  0  0  0  0  0  0
   -1.0908    0.5474   -2.1379 H   0  0  0  0  0  0  0  0  0  0  0  0
   -1.6708   -1.0662   -1.6971 H   0  0  0  0  0  0  0  0  0  0  0  0
   -0.9693    1.5769    1.5361 H   0  0  0  0  0  0  0  0  0  0  0  0
    0.2696    2.2287   -0.9444 H   0  0  0  0  0  0  0  0  0  0  0  0
    1.1815    2.1816    0.5651 H   0  0  0  0  0  0  0  0  0  0  0  0
   -2.9874    0.2785    1.4982 H   0  0  0  0  0  0  0  0  0  0  0  0
  1  2  1  0  0  0  0
  2  3  2  0  0  0  0
  2  4  1  0  0  0  0
  4  5  1  0  0  0  0
  4  6  1  0  0  0  0
  6  7  1  0  0  0  0
  7  8  1  0  0  0  0
  8  9  2  0  0  0  0
  4 10  1  0  0  0  0
  9 10  1  0  0  0  0
  8 11  1  0  0  0  0
 11 12  2  0  0  0  0
  1 13  1  0  0  0  0
  1 14  1  0  0  0  0
  1 15  1  0  0  0  0
  3 16  1  0  0  0  0
  3 17  1  0  0  0  0
  6 18  1  0  0  0  0
  6 19  1  0  0  0  0
  7 20  1  0  0  0  0
  7 21  1  0  0  0  0
  9 22  1  0  0  0  0
 10 23  1  0  0  0  0
 10 24  1  0  0  0  0
 11 25  1  0  0  0  0
M  END
