 xtb: 6.7.1 (edcfbbe)
          04112511163D

 13 12  0     0  0            999 V2000
   -1.6588    0.8389   -0.0594 C   0  0  0  0  0  0  0  0  0  0  0  0
   -1.1685   -0.4289    0.3586 O   0  0  0  0  0  0  0  0  0  0  0  0
   -0.0130   -0.8964   -0.2713 C   0  0  0  0  0  0  0  0  0  0  0  0
    1.1944   -0.4236    0.2477 O   0  0  0  0  0  0  0  0  0  0  0  0
    1.6479    0.8370   -0.2292 C   0  0  0  0  0  0  0  0  0  0  0  0
   -1.5987    0.9362   -1.1470 H   0  0  0  0  0  0  0  0  0  0  0  0
   -1.1123    1.6571    0.4150 H   0  0  0  0  0  0  0  0  0  0  0  0
   -2.6992    0.8688    0.2565 H   0  0  0  0  0  0  0  0  0  0  0  0
   -0.0026   -1.9739   -0.0820 H   0  0  0  0  0  0  0  0  0  0  0  0
   -0.0644   -0.6959   -1.3580 H   0  0  0  0  0  0  0  0  0  0  0  0
    2.7110    0.8704   -0.0014 H   0  0  0  0  0  0  0  0  0  0  0  0
    1.1428    1.6637    0.2752 H   0  0  0  0  0  0  0  0  0  0  0  0
    1.4980    0.9171   -1.3096 H   0  0  0  0  0  0  0  0  0  0  0  0
  1  2  1  0  0  0  0
  2  3  1  0  0  0  0
  3  4  1  0  0  0  0
  4  5  1  0  0  0  0
  1  6  1  0  0  0  0
  1  7  1  0  0  0  0
  1  8  1  0  0  0  0
  3  9  1  0  0  0  0
  3 10  1  0  0  0  0
  5 11  1  0  0  0  0
  5 12  1  0  0  0  0
  5 13  1  0  0  0  0
M  END
