 xtb: 6.7.1 (edcfbbe)
          04112511193D

 14 13  0     0  0            999 V2000
   -1.2531    0.2434   -0.2239 C   0  0  0  0  0  0  0  0  0  0  0  0
    0.1483    0.6705    0.2582 C   0  0  0  0  0  0  0  0  0  0  0  0
    1.2380   -0.2314   -0.3498 C   0  0  0  0  0  0  0  0  0  0  0  0
    1.1781   -1.5526    0.1280 O   0  0  0  0  0  0  0  0  0  0  0  0
    0.3815    2.0301   -0.0254 O   0  0  0  0  0  0  0  0  0  0  0  0
   -1.6086   -1.0508    0.2103 O   0  0  0  0  0  0  0  0  0  0  0  0
   -1.2682    0.2037   -1.3174 H   0  0  0  0  0  0  0  0  0  0  0  0
   -1.9837    0.9902    0.1077 H   0  0  0  0  0  0  0  0  0  0  0  0
    0.1988    0.5894    1.3504 H   0  0  0  0  0  0  0  0  0  0  0  0
    2.2227    0.1526   -0.0710 H   0  0  0  0  0  0  0  0  0  0  0  0
    1.1517   -0.2170   -1.4470 H   0  0  0  0  0  0  0  0  0  0  0  0
    0.2705   -1.8785   -0.0042 H   0  0  0  0  0  0  0  0  0  0  0  0
    0.4034    2.1621   -0.9839 H   0  0  0  0  0  0  0  0  0  0  0  0
   -1.8034   -1.0324    1.1575 H   0  0  0  0  0  0  0  0  0  0  0  0
  1  2  1  0  0  0  0
  2  3  1  0  0  0  0
  3  4  1  0  0  0  0
  2  5  1  0  0  0  0
  1  6  1  0  0  0  0
  1  7  1  0  0  0  0
  1  8  1  0  0  0  0
  2  9  1  0  0  0  0
  3 10  1  0  0  0  0
  3 11  1  0  0  0  0
  4 12  1  0  0  0  0
  5 13  1  0  0  0  0
  6 14  1  0  0  0  0
M  END
