 xtb: 6.7.1 (edcfbbe)
          04112510353D

 18 17  0     0  0            999 V2000
   -2.0169    0.3304    0.7000 C   0  0  0  0  0  0  0  0  0  0  0  0
   -1.4824   -0.4757   -0.4769 C   0  0  0  0  0  0  0  0  0  0  0  0
   -0.1845    0.1181   -1.0407 C   0  0  0  0  0  0  0  0  0  0  0  0
    0.9412    0.1127   -0.0430 C   0  0  0  0  0  0  0  0  0  0  0  0
    1.3735    1.2255    0.5294 C   0  0  0  0  0  0  0  0  0  0  0  0
    1.5424   -1.2255    0.2623 C   0  0  0  0  0  0  0  0  0  0  0  0
   -1.2866    0.3580    1.5055 H   0  0  0  0  0  0  0  0  0  0  0  0
   -2.9355   -0.1111    1.0790 H   0  0  0  0  0  0  0  0  0  0  0  0
   -2.2264    1.3536    0.3957 H   0  0  0  0  0  0  0  0  0  0  0  0
   -1.3095   -1.5069   -0.1643 H   0  0  0  0  0  0  0  0  0  0  0  0
   -2.2304   -0.4933   -1.2725 H   0  0  0  0  0  0  0  0  0  0  0  0
    0.1126   -0.4633   -1.9171 H   0  0  0  0  0  0  0  0  0  0  0  0
   -0.3794    1.1429   -1.3623 H   0  0  0  0  0  0  0  0  0  0  0  0
    2.1785    1.2233    1.2456 H   0  0  0  0  0  0  0  0  0  0  0  0
    0.9405    2.1862    0.3066 H   0  0  0  0  0  0  0  0  0  0  0  0
    1.8961   -1.6960   -0.6540 H   0  0  0  0  0  0  0  0  0  0  0  0
    2.3759   -1.1288    0.9527 H   0  0  0  0  0  0  0  0  0  0  0  0
    0.7985   -1.8840    0.7076 H   0  0  0  0  0  0  0  0  0  0  0  0
  1  2  1  0  0  0  0
  2  3  1  0  0  0  0
  3  4  1  0  0  0  0
  4  5  2  0  0  0  0
  4  6  1  0  0  0  0
  1  7  1  0  0  0  0
  1  8  1  0  0  0  0
  1  9  1  0  0  0  0
  2 10  1  0  0  0  0
  2 11  1  0  0  0  0
  3 12  1  0  0  0  0
  3 13  1  0  0  0  0
  5 14  1  0  0  0  0
  5 15  1  0  0  0  0
  6 16  1  0  0  0  0
  6 17  1  0  0  0  0
  6 18  1  0  0  0  0
M  END
