 xtb: 6.7.1 (edcfbbe)
          04112511193D

 14 13  0     0  0            999 V2000
   -1.4344    0.0155    0.6500 C   0  0  0  0  0  0  0  0  0  0  0  0
    0.0688    0.3070    0.5164 C   0  0  0  0  0  0  0  0  0  0  0  0
    0.8539   -0.9093   -0.0054 C   0  0  0  0  0  0  0  0  0  0  0  0
    2.2414   -0.6659   -0.0008 O   0  0  0  0  0  0  0  0  0  0  0  0
    0.2846    1.4152   -0.3338 O   0  0  0  0  0  0  0  0  0  0  0  0
   -2.0372   -0.1953   -0.6085 O   0  0  0  0  0  0  0  0  0  0  0  0
   -1.9248    0.8980    1.0681 H   0  0  0  0  0  0  0  0  0  0  0  0
   -1.5934   -0.8317    1.3226 H   0  0  0  0  0  0  0  0  0  0  0  0
    0.4723    0.5891    1.4946 H   0  0  0  0  0  0  0  0  0  0  0  0
    0.5265   -1.1518   -1.0262 H   0  0  0  0  0  0  0  0  0  0  0  0
    0.6929   -1.7723    0.6433 H   0  0  0  0  0  0  0  0  0  0  0  0
    2.3926    0.2049   -0.3999 H   0  0  0  0  0  0  0  0  0  0  0  0
   -0.3603    1.3614   -1.0575 H   0  0  0  0  0  0  0  0  0  0  0  0
   -1.8657   -1.0973   -0.9088 H   0  0  0  0  0  0  0  0  0  0  0  0
  1  2  1  0  0  0  0
  2  3  1  0  0  0  0
  3  4  1  0  0  0  0
  2  5  1  0  0  0  0
  1  6  1  0  0  0  0
  1  7  1  0  0  0  0
  1  8  1  0  0  0  0
  2  9  1  0  0  0  0
  3 10  1  0  0  0  0
  3 11  1  0  0  0  0
  4 12  1  0  0  0  0
  5 13  1  0  0  0  0
  6 14  1  0  0  0  0
M  END
