 xtb: 6.7.1 (edcfbbe)
          04112511393D

 22 22  0     0  0            999 V2000
   -4.0896   -0.9518    1.1334 C   0  0  0  0  0  0  0  0  0  0  0  0
   -3.4713    0.2333    0.4095 C   0  0  0  0  0  0  0  0  0  0  0  0
   -2.0422    0.1835    0.5343 O   0  0  0  0  0  0  0  0  0  0  0  0
   -1.2944    0.1862   -0.5687 C   0  0  0  0  0  0  0  0  0  0  0  0
   -1.7633    0.2514   -1.6943 O   0  0  0  0  0  0  0  0  0  0  0  0
    0.1463    0.1100   -0.2834 C   0  0  0  0  0  0  0  0  0  0  0  0
    1.0436    0.1501   -1.3508 C   0  0  0  0  0  0  0  0  0  0  0  0
    2.4017    0.0855   -1.1290 C   0  0  0  0  0  0  0  0  0  0  0  0
    2.8901   -0.0234    0.1733 C   0  0  0  0  0  0  0  0  0  0  0  0
    1.9935   -0.0666    1.2444 C   0  0  0  0  0  0  0  0  0  0  0  0
    0.6380    0.0003    1.0193 C   0  0  0  0  0  0  0  0  0  0  0  0
    4.2060   -0.0897    0.4501 O   0  0  0  0  0  0  0  0  0  0  0  0
   -3.7680   -1.8836    0.6755 H   0  0  0  0  0  0  0  0  0  0  0  0
   -3.7862   -0.9496    2.1763 H   0  0  0  0  0  0  0  0  0  0  0  0
   -5.1709   -0.8816    1.0743 H   0  0  0  0  0  0  0  0  0  0  0  0
   -3.7885    1.1769    0.8617 H   0  0  0  0  0  0  0  0  0  0  0  0
   -3.7283    0.2328   -0.6544 H   0  0  0  0  0  0  0  0  0  0  0  0
    0.6483    0.2348   -2.3517 H   0  0  0  0  0  0  0  0  0  0  0  0
    3.0856    0.1197   -1.9636 H   0  0  0  0  0  0  0  0  0  0  0  0
    2.3911   -0.1527    2.2427 H   0  0  0  0  0  0  0  0  0  0  0  0
   -0.0537   -0.0325    1.8451 H   0  0  0  0  0  0  0  0  0  0  0  0
    4.7413   -0.0517   -0.3587 H   0  0  0  0  0  0  0  0  0  0  0  0
  1  2  1  0  0  0  0
  2  3  1  0  0  0  0
  3  4  1  0  0  0  0
  4  5  2  0  0  0  0
  4  6  1  0  0  0  0
  6  7  4  0  0  0  0
  7  8  4  0  0  0  0
  8  9  4  0  0  0  0
  9 10  4  0  0  0  0
  6 11  4  0  0  0  0
 10 11  4  0  0  0  0
  9 12  1  0  0  0  0
  1 13  1  0  0  0  0
  1 14  1  0  0  0  0
  1 15  1  0  0  0  0
  2 16  1  0  0  0  0
  2 17  1  0  0  0  0
  7 18  1  0  0  0  0
  8 19  1  0  0  0  0
 10 20  1  0  0  0  0
 11 21  1  0  0  0  0
 12 22  1  0  0  0  0
M  END
