 xtb: 6.7.1 (edcfbbe)
          04112512223D

 23 22  0     0  0            999 V2000
   -1.7910    0.4163    1.0288 C   0  0  0  0  0  0  0  0  0  0  0  0
   -1.3425   -0.3933   -0.1866 C   0  0  0  0  0  0  0  0  0  0  0  0
   -1.4201    0.4648   -1.4478 C   0  0  0  0  0  0  0  0  0  0  0  0
   -0.0004   -1.1269    0.0006 C   0  0  0  0  0  0  0  0  0  0  0  0
    1.3422   -0.3938    0.1867 C   0  0  0  0  0  0  0  0  0  0  0  0
    1.7898    0.4155   -1.0293 C   0  0  0  0  0  0  0  0  0  0  0  0
    1.4219    0.4645    1.4477 C   0  0  0  0  0  0  0  0  0  0  0  0
   -2.8440    0.6725    0.9295 H   0  0  0  0  0  0  0  0  0  0  0  0
   -1.6642   -0.1562    1.9441 H   0  0  0  0  0  0  0  0  0  0  0  0
   -1.2315    1.3421    1.1171 H   0  0  0  0  0  0  0  0  0  0  0  0
   -2.0719   -1.2061   -0.3106 H   0  0  0  0  0  0  0  0  0  0  0  0
   -1.0200   -0.0698   -2.3055 H   0  0  0  0  0  0  0  0  0  0  0  0
   -2.4580    0.7173   -1.6564 H   0  0  0  0  0  0  0  0  0  0  0  0
   -0.8708    1.3935   -1.3277 H   0  0  0  0  0  0  0  0  0  0  0  0
    0.1213   -1.7806   -0.8687 H   0  0  0  0  0  0  0  0  0  0  0  0
   -0.1222   -1.7800    0.8704 H   0  0  0  0  0  0  0  0  0  0  0  0
    2.0712   -1.2068    0.3104 H   0  0  0  0  0  0  0  0  0  0  0  0
    2.8444    0.6673   -0.9336 H   0  0  0  0  0  0  0  0  0  0  0  0
    1.6573   -0.1553   -1.9449 H   0  0  0  0  0  0  0  0  0  0  0  0
    1.2336    1.3438   -1.1142 H   0  0  0  0  0  0  0  0  0  0  0  0
    0.8700    1.3920    1.3300 H   0  0  0  0  0  0  0  0  0  0  0  0
    1.0263   -0.0711    2.3068 H   0  0  0  0  0  0  0  0  0  0  0  0
    2.4600    0.7195    1.6522 H   0  0  0  0  0  0  0  0  0  0  0  0
  1  2  1  0  0  0  0
  2  3  1  0  0  0  0
  2  4  1  0  0  0  0
  4  5  1  0  0  0  0
  5  6  1  0  0  0  0
  5  7  1  0  0  0  0
  1  8  1  0  0  0  0
  1  9  1  0  0  0  0
  1 10  1  0  0  0  0
  2 11  1  0  0  0  0
  3 12  1  0  0  0  0
  3 13  1  0  0  0  0
  3 14  1  0  0  0  0
  4 15  1  0  0  0  0
  4 16  1  0  0  0  0
  5 17  1  0  0  0  0
  6 18  1  0  0  0  0
  6 19  1  0  0  0  0
  6 20  1  0  0  0  0
  7 21  1  0  0  0  0
  7 22  1  0  0  0  0
  7 23  1  0  0  0  0
M  END
