 xtb: 6.7.1 (edcfbbe)
          04112511233D

 26 25  0     0  0            999 V2000
   -2.4578    0.2633    0.6275 C   0  0  0  0  0  0  0  0  0  0  0  0
   -1.1501   -0.3342    0.0972 C   0  0  0  0  0  0  0  0  0  0  0  0
   -1.3543   -0.6750   -1.3797 C   0  0  0  0  0  0  0  0  0  0  0  0
    0.0346    0.6288    0.3290 C   0  0  0  0  0  0  0  0  0  0  0  0
    0.1064    1.0425    1.8044 C   0  0  0  0  0  0  0  0  0  0  0  0
    1.4290    0.1026   -0.1019 C   0  0  0  0  0  0  0  0  0  0  0  0
    1.6652   -1.3698    0.2305 C   0  0  0  0  0  0  0  0  0  0  0  0
    1.7621    0.3840   -1.5687 C   0  0  0  0  0  0  0  0  0  0  0  0
   -2.6184    1.2565    0.2129 H   0  0  0  0  0  0  0  0  0  0  0  0
   -3.2959   -0.3658    0.3353 H   0  0  0  0  0  0  0  0  0  0  0  0
   -2.4602    0.3309    1.7110 H   0  0  0  0  0  0  0  0  0  0  0  0
   -0.9605   -1.2616    0.6464 H   0  0  0  0  0  0  0  0  0  0  0  0
   -0.5488   -1.2889   -1.7688 H   0  0  0  0  0  0  0  0  0  0  0  0
   -1.4207    0.2338   -1.9737 H   0  0  0  0  0  0  0  0  0  0  0  0
   -2.2805   -1.2324   -1.5060 H   0  0  0  0  0  0  0  0  0  0  0  0
   -0.1613    1.5351   -0.2570 H   0  0  0  0  0  0  0  0  0  0  0  0
   -0.7663    1.6173    2.0976 H   0  0  0  0  0  0  0  0  0  0  0  0
    0.9815    1.6645    1.9798 H   0  0  0  0  0  0  0  0  0  0  0  0
    0.1763    0.1666    2.4457 H   0  0  0  0  0  0  0  0  0  0  0  0
    2.1575    0.6781    0.4826 H   0  0  0  0  0  0  0  0  0  0  0  0
    1.4412   -1.5700    1.2752 H   0  0  0  0  0  0  0  0  0  0  0  0
    1.0551   -2.0224   -0.3876 H   0  0  0  0  0  0  0  0  0  0  0  0
    2.7091   -1.6212    0.0548 H   0  0  0  0  0  0  0  0  0  0  0  0
    1.1613   -0.2103   -2.2483 H   0  0  0  0  0  0  0  0  0  0  0  0
    2.8089    0.1518   -1.7559 H   0  0  0  0  0  0  0  0  0  0  0  0
    1.6026    1.4350   -1.7994 H   0  0  0  0  0  0  0  0  0  0  0  0
  1  2  1  0  0  0  0
  2  3  1  0  0  0  0
  2  4  1  0  0  0  0
  4  5  1  0  0  0  0
  4  6  1  0  0  0  0
  6  7  1  0  0  0  0
  6  8  1  0  0  0  0
  1  9  1  0  0  0  0
  1 10  1  0  0  0  0
  1 11  1  0  0  0  0
  2 12  1  0  0  0  0
  3 13  1  0  0  0  0
  3 14  1  0  0  0  0
  3 15  1  0  0  0  0
  4 16  1  0  0  0  0
  5 17  1  0  0  0  0
  5 18  1  0  0  0  0
  5 19  1  0  0  0  0
  6 20  1  0  0  0  0
  7 21  1  0  0  0  0
  7 22  1  0  0  0  0
  7 23  1  0  0  0  0
  8 24  1  0  0  0  0
  8 25  1  0  0  0  0
  8 26  1  0  0  0  0
M  END
