 xtb: 6.7.1 (edcfbbe)
          04112512223D

 23 22  0     0  0            999 V2000
   -1.9342   -0.8207    0.7407 C   0  0  0  0  0  0  0  0  0  0  0  0
   -1.2125   -0.1939   -0.4507 C   0  0  0  0  0  0  0  0  0  0  0  0
   -2.1818    0.6915   -1.2333 C   0  0  0  0  0  0  0  0  0  0  0  0
   -0.0000    0.6307    0.0000 C   0  0  0  0  0  0  0  0  0  0  0  0
    1.2125   -0.1940    0.4506 C   0  0  0  0  0  0  0  0  0  0  0  0
    1.9344   -0.8201   -0.7411 C   0  0  0  0  0  0  0  0  0  0  0  0
    2.1816    0.6911    1.2338 C   0  0  0  0  0  0  0  0  0  0  0  0
   -2.7806   -1.4138    0.4017 H   0  0  0  0  0  0  0  0  0  0  0  0
   -1.2706   -1.4702    1.3053 H   0  0  0  0  0  0  0  0  0  0  0  0
   -2.3046   -0.0445    1.4075 H   0  0  0  0  0  0  0  0  0  0  0  0
   -0.8732   -0.9969   -1.1130 H   0  0  0  0  0  0  0  0  0  0  0  0
   -1.7015    1.0979   -2.1204 H   0  0  0  0  0  0  0  0  0  0  0  0
   -3.0529    0.1205   -1.5466 H   0  0  0  0  0  0  0  0  0  0  0  0
   -2.5193    1.5205   -0.6146 H   0  0  0  0  0  0  0  0  0  0  0  0
   -0.3150    1.2779    0.8223 H   0  0  0  0  0  0  0  0  0  0  0  0
    0.3150    1.2781   -0.8220 H   0  0  0  0  0  0  0  0  0  0  0  0
    0.8732   -0.9974    1.1124 H   0  0  0  0  0  0  0  0  0  0  0  0
    2.3052   -0.0436   -1.4072 H   0  0  0  0  0  0  0  0  0  0  0  0
    2.7806   -1.4136   -0.4023 H   0  0  0  0  0  0  0  0  0  0  0  0
    1.2708   -1.4691   -1.3063 H   0  0  0  0  0  0  0  0  0  0  0  0
    2.5190    1.5205    0.6157 H   0  0  0  0  0  0  0  0  0  0  0  0
    1.7012    1.0968    2.1211 H   0  0  0  0  0  0  0  0  0  0  0  0
    3.0527    0.1200    1.5468 H   0  0  0  0  0  0  0  0  0  0  0  0
  1  2  1  0  0  0  0
  2  3  1  0  0  0  0
  2  4  1  0  0  0  0
  4  5  1  0  0  0  0
  5  6  1  0  0  0  0
  5  7  1  0  0  0  0
  1  8  1  0  0  0  0
  1  9  1  0  0  0  0
  1 10  1  0  0  0  0
  2 11  1  0  0  0  0
  3 12  1  0  0  0  0
  3 13  1  0  0  0  0
  3 14  1  0  0  0  0
  4 15  1  0  0  0  0
  4 16  1  0  0  0  0
  5 17  1  0  0  0  0
  6 18  1  0  0  0  0
  6 19  1  0  0  0  0
  6 20  1  0  0  0  0
  7 21  1  0  0  0  0
  7 22  1  0  0  0  0
  7 23  1  0  0  0  0
M  END
