 xtb: 6.7.1 (edcfbbe)
          04112512003D

 24 25  0     0  0            999 V2000
    4.5038    0.2612    0.1218 C   0  0  0  0  0  0  0  0  0  0  0  0
    3.0722    0.3740    0.2979 N   0  0  0  0  0  0  0  0  0  0  0  0
    2.6451    1.4175    1.2011 C   0  0  0  0  0  0  0  0  0  0  0  0
    2.2501   -0.4629   -0.3356 C   0  0  0  0  0  0  0  0  0  0  0  0
    2.6373   -1.3807   -1.0638 O   0  0  0  0  0  0  0  0  0  0  0  0
    0.7720   -0.2553   -0.1605 C   0  0  0  0  0  0  0  0  0  0  0  0
    0.1374    0.8294   -0.7655 C   0  0  0  0  0  0  0  0  0  0  0  0
   -1.2349    0.9548   -0.6970 C   0  0  0  0  0  0  0  0  0  0  0  0
   -1.9727   -0.0127   -0.0175 C   0  0  0  0  0  0  0  0  0  0  0  0
   -1.3502   -1.1048    0.5832 C   0  0  0  0  0  0  0  0  0  0  0  0
    0.0222   -1.2250    0.5017 C   0  0  0  0  0  0  0  0  0  0  0  0
   -3.3898    0.1123    0.0559 N   0  0  0  0  0  0  0  0  0  0  0  0
   -4.0199   -0.7447    0.6551 O   0  0  0  0  0  0  0  0  0  0  0  0
   -3.9182    1.0707   -0.4851 O   0  0  0  0  0  0  0  0  0  0  0  0
    4.9046    1.2032   -0.2522 H   0  0  0  0  0  0  0  0  0  0  0  0
    4.7023   -0.5316   -0.5964 H   0  0  0  0  0  0  0  0  0  0  0  0
    4.9814    0.0185    1.0713 H   0  0  0  0  0  0  0  0  0  0  0  0
    1.5856    1.3268    1.4207 H   0  0  0  0  0  0  0  0  0  0  0  0
    2.8411    2.3972    0.7618 H   0  0  0  0  0  0  0  0  0  0  0  0
    3.2086    1.3352    2.1309 H   0  0  0  0  0  0  0  0  0  0  0  0
    0.7201    1.5675   -1.2929 H   0  0  0  0  0  0  0  0  0  0  0  0
   -1.7494    1.7841   -1.1563 H   0  0  0  0  0  0  0  0  0  0  0  0
   -1.9509   -1.8391    1.0965 H   0  0  0  0  0  0  0  0  0  0  0  0
    0.5221   -2.0705    0.9466 H   0  0  0  0  0  0  0  0  0  0  0  0
  1  2  1  0  0  0  0
  2  3  1  0  0  0  0
  2  4  4  0  0  0  0
  4  5  2  0  0  0  0
  4  6  1  0  0  0  0
  6  7  4  0  0  0  0
  7  8  4  0  0  0  0
  8  9  4  0  0  0  0
  9 10  4  0  0  0  0
  6 11  4  0  0  0  0
 10 11  4  0  0  0  0
  9 12  1  0  0  0  0
 12 13  4  0  0  0  0
 12 14  4  0  0  0  0
 13 14  1  0  0  0  0
  1 15  1  0  0  0  0
  1 16  1  0  0  0  0
  1 17  1  0  0  0  0
  3 18  1  0  0  0  0
  3 19  1  0  0  0  0
  3 20  1  0  0  0  0
  7 21  1  0  0  0  0
  8 22  1  0  0  0  0
 10 23  1  0  0  0  0
 11 24  1  0  0  0  0
M  END
