 xtb: 6.7.1 (edcfbbe)
          04112510483D

 27 27  0     0  0            999 V2000
   -4.2777   -1.9569   -1.3457 C   0  0  0  0  0  0  0  0  0  0  0  0
   -3.2972   -0.8026   -1.1792 C   0  0  0  0  0  0  0  0  0  0  0  0
   -2.4873   -0.9194    0.1159 C   0  0  0  0  0  0  0  0  0  0  0  0
   -2.0616   -1.9271    0.1756 H   0  0  0  0  0  0  0  0  0  0  0  0
   -3.3088   -0.6483    1.3710 C   0  0  0  0  0  0  0  0  0  0  0  0
   -1.3121   -0.0275    0.0697 N   0  0  0  0  0  0  0  0  0  0  0  0
   -0.0545   -0.6306    0.1207 C   0  0  0  0  0  0  0  0  0  0  0  0
    0.0678   -1.8416    0.2006 O   0  0  0  0  0  0  0  0  0  0  0  0
    1.0594    0.2872    0.0707 C   0  0  0  0  0  0  0  0  0  0  0  0
    0.9020    1.6327   -0.0225 C   0  0  0  0  0  0  0  0  0  0  0  0
   -0.3739    2.1027   -0.0633 N   0  0  0  0  0  0  0  0  0  0  0  0
   -1.5098    1.3284   -0.0238 C   0  0  0  0  0  0  0  0  0  0  0  0
   -2.6043    1.8576   -0.0722 O   0  0  0  0  0  0  0  0  0  0  0  0
    2.0111    2.6169   -0.0684 C   0  0  0  0  0  0  0  0  0  0  0  0
    2.7821   -0.5109    0.1494 Br  0  0  0  0  0  0  0  0  0  0  0  0
   -5.0368   -1.9379   -0.5697 H   0  0  0  0  0  0  0  0  0  0  0  0
   -4.7737   -1.8810   -2.3093 H   0  0  0  0  0  0  0  0  0  0  0  0
   -3.7552   -2.9097   -1.3000 H   0  0  0  0  0  0  0  0  0  0  0  0
   -2.5986   -0.8046   -2.0203 H   0  0  0  0  0  0  0  0  0  0  0  0
   -3.8335    0.1466   -1.1866 H   0  0  0  0  0  0  0  0  0  0  0  0
   -3.7700    0.3341    1.3197 H   0  0  0  0  0  0  0  0  0  0  0  0
   -4.0843   -1.4011    1.4628 H   0  0  0  0  0  0  0  0  0  0  0  0
   -2.6735   -0.6994    2.2525 H   0  0  0  0  0  0  0  0  0  0  0  0
   -0.5371    3.1031   -0.1273 H   0  0  0  0  0  0  0  0  0  0  0  0
    2.4266    2.7478    0.9303 H   0  0  0  0  0  0  0  0  0  0  0  0
    1.6634    3.5776   -0.4334 H   0  0  0  0  0  0  0  0  0  0  0  0
    2.8142    2.2511   -0.7042 H   0  0  0  0  0  0  0  0  0  0  0  0
  1  2  1  0  0  0  0
  2  3  1  0  0  0  0
  3  4  1  0  0  0  0
  3  5  1  0  0  0  0
  3  6  1  0  0  0  0
  6  7  1  0  0  0  0
  7  8  2  0  0  0  0
  7  9  1  0  0  0  0
  9 10  2  0  0  0  0
 10 11  1  0  0  0  0
  6 12  1  0  0  0  0
 11 12  1  0  0  0  0
 12 13  2  0  0  0  0
 10 14  1  0  0  0  0
  9 15  1  0  0  0  0
  1 16  1  0  0  0  0
  1 17  1  0  0  0  0
  1 18  1  0  0  0  0
  2 19  1  0  0  0  0
  2 20  1  0  0  0  0
  5 21  1  0  0  0  0
  5 22  1  0  0  0  0
  5 23  1  0  0  0  0
 11 24  1  0  0  0  0
 14 25  1  0  0  0  0
 14 26  1  0  0  0  0
 14 27  1  0  0  0  0
M  END
