 xtb: 6.7.1 (edcfbbe)
          04112512203D

 18 17  0     0  0            999 V2000
   -1.3857    1.5869    0.1316 C   0  0  0  0  0  0  0  0  0  0  0  0
   -1.2945    0.1494   -0.3662 C   0  0  0  0  0  0  0  0  0  0  0  0
   -0.1300   -0.6371    0.2484 C   0  0  0  0  0  0  0  0  0  0  0  0
   -0.1234   -0.4639    1.3296 H   0  0  0  0  0  0  0  0  0  0  0  0
   -0.3075   -2.1308   -0.0225 C   0  0  0  0  0  0  0  0  0  0  0  0
    1.2319   -0.1826   -0.2907 C   0  0  0  0  0  0  0  0  0  0  0  0
    1.6156    1.0443    0.2997 O   0  0  0  0  0  0  0  0  0  0  0  0
   -0.4615    2.1211   -0.0668 H   0  0  0  0  0  0  0  0  0  0  0  0
   -2.2052    2.1059   -0.3602 H   0  0  0  0  0  0  0  0  0  0  0  0
   -1.5598    1.6040    1.2051 H   0  0  0  0  0  0  0  0  0  0  0  0
   -1.1912    0.1445   -1.4540 H   0  0  0  0  0  0  0  0  0  0  0  0
   -2.2262   -0.3660   -0.1215 H   0  0  0  0  0  0  0  0  0  0  0  0
   -1.2563   -2.4758    0.3792 H   0  0  0  0  0  0  0  0  0  0  0  0
    0.4903   -2.7061    0.4405 H   0  0  0  0  0  0  0  0  0  0  0  0
   -0.2961   -2.3225   -1.0932 H   0  0  0  0  0  0  0  0  0  0  0  0
    1.1778   -0.0786   -1.3837 H   0  0  0  0  0  0  0  0  0  0  0  0
    1.9789   -0.9530   -0.0544 H   0  0  0  0  0  0  0  0  0  0  0  0
    2.4996    1.2824   -0.0085 H   0  0  0  0  0  0  0  0  0  0  0  0
  1  2  1  0  0  0  0
  2  3  1  0  0  0  0
  3  4  1  0  0  0  0
  3  5  1  0  0  0  0
  3  6  1  0  0  0  0
  6  7  1  0  0  0  0
  1  8  1  0  0  0  0
  1  9  1  0  0  0  0
  1 10  1  0  0  0  0
  2 11  1  0  0  0  0
  2 12  1  0  0  0  0
  5 13  1  0  0  0  0
  5 14  1  0  0  0  0
  5 15  1  0  0  0  0
  6 16  1  0  0  0  0
  6 17  1  0  0  0  0
  7 18  1  0  0  0  0
M  END
