 xtb: 6.7.1 (edcfbbe)
          04112510563D

 24 24  0     0  0            999 V2000
    2.0358    1.9092   -0.3983 C   0  0  0  0  0  0  0  0  0  0  0  0
    2.2984    0.4111   -0.4960 C   0  0  0  0  0  0  0  0  0  0  0  0
    1.4464   -0.3902    0.4984 C   0  0  0  0  0  0  0  0  0  0  0  0
    1.6628   -0.0155    1.5053 H   0  0  0  0  0  0  0  0  0  0  0  0
    1.8137   -1.8758    0.4541 C   0  0  0  0  0  0  0  0  0  0  0  0
   -0.0267   -0.1989    0.2341 C   0  0  0  0  0  0  0  0  0  0  0  0
   -0.8465    0.3734    1.1986 C   0  0  0  0  0  0  0  0  0  0  0  0
   -2.1993    0.5542    0.9681 C   0  0  0  0  0  0  0  0  0  0  0  0
   -2.7558    0.1630   -0.2371 C   0  0  0  0  0  0  0  0  0  0  0  0
   -1.9497   -0.4097   -1.2065 C   0  0  0  0  0  0  0  0  0  0  0  0
   -0.5985   -0.5888   -0.9717 C   0  0  0  0  0  0  0  0  0  0  0  0
    2.2563    2.2706    0.6038 H   0  0  0  0  0  0  0  0  0  0  0  0
    2.6597    2.4516   -1.1045 H   0  0  0  0  0  0  0  0  0  0  0  0
    0.9930    2.1283   -0.6186 H   0  0  0  0  0  0  0  0  0  0  0  0
    2.0887    0.0722   -1.5120 H   0  0  0  0  0  0  0  0  0  0  0  0
    3.3529    0.2140   -0.2911 H   0  0  0  0  0  0  0  0  0  0  0  0
    2.8590   -2.0128    0.7212 H   0  0  0  0  0  0  0  0  0  0  0  0
    1.1997   -2.4370    1.1549 H   0  0  0  0  0  0  0  0  0  0  0  0
    1.6575   -2.2832   -0.5414 H   0  0  0  0  0  0  0  0  0  0  0  0
   -0.4203    0.6839    2.1422 H   0  0  0  0  0  0  0  0  0  0  0  0
   -2.8195    1.0022    1.7307 H   0  0  0  0  0  0  0  0  0  0  0  0
   -3.8106    0.3033   -0.4205 H   0  0  0  0  0  0  0  0  0  0  0  0
   -2.3762   -0.7178   -2.1499 H   0  0  0  0  0  0  0  0  0  0  0  0
    0.0154   -1.0362   -1.7393 H   0  0  0  0  0  0  0  0  0  0  0  0
  1  2  1  0  0  0  0
  2  3  1  0  0  0  0
  3  4  1  0  0  0  0
  3  5  1  0  0  0  0
  3  6  1  0  0  0  0
  6  7  4  0  0  0  0
  7  8  4  0  0  0  0
  8  9  4  0  0  0  0
  9 10  4  0  0  0  0
  6 11  4  0  0  0  0
 10 11  4  0  0  0  0
  1 12  1  0  0  0  0
  1 13  1  0  0  0  0
  1 14  1  0  0  0  0
  2 15  1  0  0  0  0
  2 16  1  0  0  0  0
  5 17  1  0  0  0  0
  5 18  1  0  0  0  0
  5 19  1  0  0  0  0
  7 20  1  0  0  0  0
  8 21  1  0  0  0  0
  9 22  1  0  0  0  0
 10 23  1  0  0  0  0
 11 24  1  0  0  0  0
M  END
