 xtb: 6.7.1 (edcfbbe)
          04112511553D

 24 24  0     0  0            999 V2000
   -2.8571    0.8503   -0.4959 C   0  0  0  0  0  0  0  0  0  0  0  0
   -2.4034   -0.2244    0.4862 C   0  0  0  0  0  0  0  0  0  0  0  0
   -1.1344   -0.9679    0.0522 C   0  0  0  0  0  0  0  0  0  0  0  0
    0.1773   -0.3109    0.4849 C   0  0  0  0  0  0  0  0  0  0  0  0
    1.3940   -1.2197    0.1961 C   0  0  0  0  0  0  0  0  0  0  0  0
    2.5006   -0.3131   -0.3670 C   0  0  0  0  0  0  0  0  0  0  0  0
    2.0297    1.1105   -0.0741 C   0  0  0  0  0  0  0  0  0  0  0  0
    0.5148    1.0085   -0.2172 C   0  0  0  0  0  0  0  0  0  0  0  0
   -3.0314    0.4155   -1.4777 H   0  0  0  0  0  0  0  0  0  0  0  0
   -3.7859    1.3014   -0.1533 H   0  0  0  0  0  0  0  0  0  0  0  0
   -2.1141    1.6352   -0.5955 H   0  0  0  0  0  0  0  0  0  0  0  0
   -2.2413    0.2234    1.4689 H   0  0  0  0  0  0  0  0  0  0  0  0
   -3.2128   -0.9511    0.5895 H   0  0  0  0  0  0  0  0  0  0  0  0
   -1.1556   -1.9681    0.4928 H   0  0  0  0  0  0  0  0  0  0  0  0
   -1.1387   -1.0876   -1.0336 H   0  0  0  0  0  0  0  0  0  0  0  0
    0.1256   -0.1229    1.5627 H   0  0  0  0  0  0  0  0  0  0  0  0
    1.7206   -1.7198    1.1074 H   0  0  0  0  0  0  0  0  0  0  0  0
    1.1291   -1.9929   -0.5250 H   0  0  0  0  0  0  0  0  0  0  0  0
    3.4718   -0.5247    0.0780 H   0  0  0  0  0  0  0  0  0  0  0  0
    2.5874   -0.4532   -1.4451 H   0  0  0  0  0  0  0  0  0  0  0  0
    2.2854    1.3882    0.9499 H   0  0  0  0  0  0  0  0  0  0  0  0
    2.4691    1.8432   -0.7497 H   0  0  0  0  0  0  0  0  0  0  0  0
    0.0025    1.8601    0.2275 H   0  0  0  0  0  0  0  0  0  0  0  0
    0.2478    0.9470   -1.2735 H   0  0  0  0  0  0  0  0  0  0  0  0
  1  2  1  0  0  0  0
  2  3  1  0  0  0  0
  3  4  1  0  0  0  0
  4  5  1  0  0  0  0
  5  6  1  0  0  0  0
  6  7  1  0  0  0  0
  4  8  1  0  0  0  0
  7  8  1  0  0  0  0
  1  9  1  0  0  0  0
  1 10  1  0  0  0  0
  1 11  1  0  0  0  0
  2 12  1  0  0  0  0
  2 13  1  0  0  0  0
  3 14  1  0  0  0  0
  3 15  1  0  0  0  0
  4 16  1  0  0  0  0
  5 17  1  0  0  0  0
  5 18  1  0  0  0  0
  6 19  1  0  0  0  0
  6 20  1  0  0  0  0
  7 21  1  0  0  0  0
  7 22  1  0  0  0  0
  8 23  1  0  0  0  0
  8 24  1  0  0  0  0
M  END
