 xtb: 6.7.1 (edcfbbe)
          04112511493D

 21 20  0     0  0            999 V2000
    1.7940   -1.1564    0.1150 C   0  0  0  0  0  0  0  0  0  0  0  0
    1.2205    0.2171    0.4474 C   0  0  0  0  0  0  0  0  0  0  0  0
    0.9784    0.2565    1.5232 H   0  0  0  0  0  0  0  0  0  0  0  0
   -0.0480    0.5207   -0.3614 C   0  0  0  0  0  0  0  0  0  0  0  0
   -1.2680   -0.3123    0.0781 C   0  0  0  0  0  0  0  0  0  0  0  0
   -2.3780    0.5888    0.6185 C   0  0  0  0  0  0  0  0  0  0  0  0
   -1.7972   -1.1643   -1.0741 C   0  0  0  0  0  0  0  0  0  0  0  0
    2.2440    1.1630    0.1720 O   0  0  0  0  0  0  0  0  0  0  0  0
    2.0642   -1.1894   -0.9372 H   0  0  0  0  0  0  0  0  0  0  0  0
    2.6897   -1.3299    0.7052 H   0  0  0  0  0  0  0  0  0  0  0  0
    1.0690   -1.9350    0.3270 H   0  0  0  0  0  0  0  0  0  0  0  0
   -0.2780    1.5831   -0.2522 H   0  0  0  0  0  0  0  0  0  0  0  0
    0.1732    0.3456   -1.4155 H   0  0  0  0  0  0  0  0  0  0  0  0
   -0.9613   -0.9846    0.8866 H   0  0  0  0  0  0  0  0  0  0  0  0
   -3.2226   -0.0084    0.9543 H   0  0  0  0  0  0  0  0  0  0  0  0
   -2.7261    1.2681   -0.1566 H   0  0  0  0  0  0  0  0  0  0  0  0
   -2.0191    1.1760    1.4606 H   0  0  0  0  0  0  0  0  0  0  0  0
   -1.0207   -1.8259   -1.4499 H   0  0  0  0  0  0  0  0  0  0  0  0
   -2.6361   -1.7725   -0.7435 H   0  0  0  0  0  0  0  0  0  0  0  0
   -2.1354   -0.5287   -1.8895 H   0  0  0  0  0  0  0  0  0  0  0  0
    1.9183    2.0531    0.3605 H   0  0  0  0  0  0  0  0  0  0  0  0
  1  2  1  0  0  0  0
  2  3  1  0  0  0  0
  2  4  1  0  0  0  0
  4  5  1  0  0  0  0
  5  6  1  0  0  0  0
  5  7  1  0  0  0  0
  2  8  1  0  0  0  0
  1  9  1  0  0  0  0
  1 10  1  0  0  0  0
  1 11  1  0  0  0  0
  4 12  1  0  0  0  0
  4 13  1  0  0  0  0
  5 14  1  0  0  0  0
  6 15  1  0  0  0  0
  6 16  1  0  0  0  0
  6 17  1  0  0  0  0
  7 18  1  0  0  0  0
  7 19  1  0  0  0  0
  7 20  1  0  0  0  0
  8 21  1  0  0  0  0
M  END
