 xtb: 6.7.1 (edcfbbe)
          04112511413D

 15 14  0     0  0            999 V2000
   -2.9433    0.5003    0.0000 C   0  0  0  0  0  0  0  0  0  0  0  0
   -1.7757   -0.4791   -0.0026 C   0  0  0  0  0  0  0  0  0  0  0  0
   -0.4352    0.2522    0.0025 C   0  0  0  0  0  0  0  0  0  0  0  0
    0.7371   -0.7394    0.0016 C   0  0  0  0  0  0  0  0  0  0  0  0
    1.9957   -0.0519    0.0004 C   0  0  0  0  0  0  0  0  0  0  0  0
    2.9925    0.5137   -0.0018 N   0  0  0  0  0  0  0  0  0  0  0  0
   -3.8889   -0.0355   -0.0044 H   0  0  0  0  0  0  0  0  0  0  0  0
   -2.9100    1.1319    0.8848 H   0  0  0  0  0  0  0  0  0  0  0  0
   -2.9067    1.1407   -0.8783 H   0  0  0  0  0  0  0  0  0  0  0  0
   -1.8415   -1.1230    0.8770 H   0  0  0  0  0  0  0  0  0  0  0  0
   -1.8389   -1.1150   -0.8882 H   0  0  0  0  0  0  0  0  0  0  0  0
   -0.3689    0.8902    0.8864 H   0  0  0  0  0  0  0  0  0  0  0  0
   -0.3654    0.8958   -0.8772 H   0  0  0  0  0  0  0  0  0  0  0  0
    0.6945   -1.3764    0.8887 H   0  0  0  0  0  0  0  0  0  0  0  0
    0.6933   -1.3758   -0.8860 H   0  0  0  0  0  0  0  0  0  0  0  0
  1  2  1  0  0  0  0
  2  3  1  0  0  0  0
  3  4  1  0  0  0  0
  4  5  1  0  0  0  0
  5  6  3  0  0  0  0
  1  7  1  0  0  0  0
  1  8  1  0  0  0  0
  1  9  1  0  0  0  0
  2 10  1  0  0  0  0
  2 11  1  0  0  0  0
  3 12  1  0  0  0  0
  3 13  1  0  0  0  0
  4 14  1  0  0  0  0
  4 15  1  0  0  0  0
M  END
