 xtb: 6.7.1 (edcfbbe)
          04112511583D

 20 19  0     0  0            999 V2000
    2.0005    0.5758    0.7345 C   0  0  0  0  0  0  0  0  0  0  0  0
    1.4998   -0.4181   -0.3079 C   0  0  0  0  0  0  0  0  0  0  0  0
    0.2598    0.0289   -1.0889 C   0  0  0  0  0  0  0  0  0  0  0  0
   -1.1045   -0.0033   -0.3772 C   0  0  0  0  0  0  0  0  0  0  0  0
   -1.3063    1.1391    0.6173 C   0  0  0  0  0  0  0  0  0  0  0  0
   -1.3767   -1.3473    0.2953 C   0  0  0  0  0  0  0  0  0  0  0  0
    1.3407    0.6203    1.5952 H   0  0  0  0  0  0  0  0  0  0  0  0
    2.9870    0.2793    1.0852 H   0  0  0  0  0  0  0  0  0  0  0  0
    2.0755    1.5727    0.3061 H   0  0  0  0  0  0  0  0  0  0  0  0
    2.2988   -0.5694   -1.0391 H   0  0  0  0  0  0  0  0  0  0  0  0
    1.3132   -1.3824    0.1655 H   0  0  0  0  0  0  0  0  0  0  0  0
    0.4291    1.0419   -1.4629 H   0  0  0  0  0  0  0  0  0  0  0  0
    0.1787   -0.6263   -1.9611 H   0  0  0  0  0  0  0  0  0  0  0  0
   -1.8519    0.1285   -1.1706 H   0  0  0  0  0  0  0  0  0  0  0  0
   -2.3535    1.1949    0.9079 H   0  0  0  0  0  0  0  0  0  0  0  0
   -1.0240    2.0908    0.1736 H   0  0  0  0  0  0  0  0  0  0  0  0
   -0.7186    0.9887    1.5175 H   0  0  0  0  0  0  0  0  0  0  0  0
   -1.2070   -2.1660   -0.4002 H   0  0  0  0  0  0  0  0  0  0  0  0
   -0.7333   -1.4851    1.1607 H   0  0  0  0  0  0  0  0  0  0  0  0
   -2.4094   -1.3925    0.6338 H   0  0  0  0  0  0  0  0  0  0  0  0
  1  2  1  0  0  0  0
  2  3  1  0  0  0  0
  3  4  1  0  0  0  0
  4  5  1  0  0  0  0
  4  6  1  0  0  0  0
  1  7  1  0  0  0  0
  1  8  1  0  0  0  0
  1  9  1  0  0  0  0
  2 10  1  0  0  0  0
  2 11  1  0  0  0  0
  3 12  1  0  0  0  0
  3 13  1  0  0  0  0
  4 14  1  0  0  0  0
  5 15  1  0  0  0  0
  5 16  1  0  0  0  0
  5 17  1  0  0  0  0
  6 18  1  0  0  0  0
  6 19  1  0  0  0  0
  6 20  1  0  0  0  0
M  END
