 xtb: 6.7.1 (edcfbbe)
          04112511493D

 17 16  0     0  0            999 V2000
   -2.0478    1.4953    0.0966 C   0  0  0  0  0  0  0  0  0  0  0  0
   -1.9367    0.0461   -0.3623 C   0  0  0  0  0  0  0  0  0  0  0  0
   -0.9964   -0.7917    0.5146 C   0  0  0  0  0  0  0  0  0  0  0  0
    0.4625   -0.6608    0.1617 C   0  0  0  0  0  0  0  0  0  0  0  0
    1.2274   -1.6031    0.0920 O   0  0  0  0  0  0  0  0  0  0  0  0
    0.8455    0.5892   -0.0613 O   0  0  0  0  0  0  0  0  0  0  0  0
    2.2156    0.8069   -0.4045 C   0  0  0  0  0  0  0  0  0  0  0  0
   -2.7179    2.0436   -0.5604 H   0  0  0  0  0  0  0  0  0  0  0  0
   -2.4440    1.5425    1.1082 H   0  0  0  0  0  0  0  0  0  0  0  0
   -1.0755    1.9780    0.0818 H   0  0  0  0  0  0  0  0  0  0  0  0
   -1.5920    0.0122   -1.3972 H   0  0  0  0  0  0  0  0  0  0  0  0
   -2.9262   -0.4123   -0.3274 H   0  0  0  0  0  0  0  0  0  0  0  0
   -1.2387   -1.8525    0.4404 H   0  0  0  0  0  0  0  0  0  0  0  0
   -1.1095   -0.4900    1.5583 H   0  0  0  0  0  0  0  0  0  0  0  0
    2.8533    0.5754    0.4495 H   0  0  0  0  0  0  0  0  0  0  0  0
    2.2899    1.8562   -0.6719 H   0  0  0  0  0  0  0  0  0  0  0  0
    2.4983    0.1665   -1.2409 H   0  0  0  0  0  0  0  0  0  0  0  0
  1  2  1  0  0  0  0
  2  3  1  0  0  0  0
  3  4  1  0  0  0  0
  4  5  2  0  0  0  0
  4  6  1  0  0  0  0
  6  7  1  0  0  0  0
  1  8  1  0  0  0  0
  1  9  1  0  0  0  0
  1 10  1  0  0  0  0
  2 11  1  0  0  0  0
  2 12  1  0  0  0  0
  3 13  1  0  0  0  0
  3 14  1  0  0  0  0
  7 15  1  0  0  0  0
  7 16  1  0  0  0  0
  7 17  1  0  0  0  0
M  END
