 xtb: 6.7.1 (edcfbbe)
          04112511553D

 24 24  0     0  0            999 V2000
   -2.3247    0.8084   -0.8383 C   0  0  0  0  0  0  0  0  0  0  0  0
   -2.0384   -0.5761   -0.2666 C   0  0  0  0  0  0  0  0  0  0  0  0
   -1.2075   -0.5991    1.0215 C   0  0  0  0  0  0  0  0  0  0  0  0
    0.3018   -0.3177    0.9464 C   0  0  0  0  0  0  0  0  0  0  0  0
    1.0690   -1.2144   -0.0424 C   0  0  0  0  0  0  0  0  0  0  0  0
    2.1908   -0.3315   -0.5834 C   0  0  0  0  0  0  0  0  0  0  0  0
    1.5146    1.0297   -0.7085 C   0  0  0  0  0  0  0  0  0  0  0  0
    0.6933    1.1318    0.5776 C   0  0  0  0  0  0  0  0  0  0  0  0
   -3.0721    0.7334   -1.6260 H   0  0  0  0  0  0  0  0  0  0  0  0
   -2.7116    1.4696   -0.0656 H   0  0  0  0  0  0  0  0  0  0  0  0
   -1.4333    1.2550   -1.2676 H   0  0  0  0  0  0  0  0  0  0  0  0
   -2.9963   -1.0482   -0.0316 H   0  0  0  0  0  0  0  0  0  0  0  0
   -1.5646   -1.1892   -1.0342 H   0  0  0  0  0  0  0  0  0  0  0  0
   -1.6464    0.1107    1.7275 H   0  0  0  0  0  0  0  0  0  0  0  0
   -1.3191   -1.5965    1.4568 H   0  0  0  0  0  0  0  0  0  0  0  0
    0.6816   -0.5204    1.9540 H   0  0  0  0  0  0  0  0  0  0  0  0
    1.4432   -2.1183    0.4367 H   0  0  0  0  0  0  0  0  0  0  0  0
    0.4234   -1.5150   -0.8666 H   0  0  0  0  0  0  0  0  0  0  0  0
    3.0077   -0.2748    0.1381 H   0  0  0  0  0  0  0  0  0  0  0  0
    2.5896   -0.6952   -1.5296 H   0  0  0  0  0  0  0  0  0  0  0  0
    2.2261    1.8479   -0.8128 H   0  0  0  0  0  0  0  0  0  0  0  0
    0.8604    1.0311   -1.5821 H   0  0  0  0  0  0  0  0  0  0  0  0
    1.3149    1.5531    1.3694 H   0  0  0  0  0  0  0  0  0  0  0  0
   -0.1740    1.7766    0.4668 H   0  0  0  0  0  0  0  0  0  0  0  0
  1  2  1  0  0  0  0
  2  3  1  0  0  0  0
  3  4  1  0  0  0  0
  4  5  1  0  0  0  0
  5  6  1  0  0  0  0
  6  7  1  0  0  0  0
  4  8  1  0  0  0  0
  7  8  1  0  0  0  0
  1  9  1  0  0  0  0
  1 10  1  0  0  0  0
  1 11  1  0  0  0  0
  2 12  1  0  0  0  0
  2 13  1  0  0  0  0
  3 14  1  0  0  0  0
  3 15  1  0  0  0  0
  4 16  1  0  0  0  0
  5 17  1  0  0  0  0
  5 18  1  0  0  0  0
  6 19  1  0  0  0  0
  6 20  1  0  0  0  0
  7 21  1  0  0  0  0
  7 22  1  0  0  0  0
  8 23  1  0  0  0  0
  8 24  1  0  0  0  0
M  END
