 xtb: 6.7.1 (edcfbbe)
          04112512013D

 22 22  0     0  0            999 V2000
    5.4389   -0.0217   -0.8645 C   0  0  0  0  0  0  0  0  0  0  0  0
    4.5047   -0.5812    0.2092 C   0  0  0  0  0  0  0  0  0  0  0  0
    3.2259    0.2305    0.2607 C   0  0  0  0  0  0  0  0  0  0  0  0
    3.2352    1.4387    0.4338 O   0  0  0  0  0  0  0  0  0  0  0  0
    2.0922   -0.5061    0.0967 N   0  0  0  0  0  0  0  0  0  0  0  0
    0.7655   -0.0840    0.0954 C   0  0  0  0  0  0  0  0  0  0  0  0
    0.3857    1.2492    0.2444 C   0  0  0  0  0  0  0  0  0  0  0  0
   -0.9509    1.5966    0.2319 C   0  0  0  0  0  0  0  0  0  0  0  0
   -1.9286    0.6276    0.0714 C   0  0  0  0  0  0  0  0  0  0  0  0
   -1.5559   -0.7029   -0.0779 C   0  0  0  0  0  0  0  0  0  0  0  0
   -0.2208   -1.0589   -0.0666 C   0  0  0  0  0  0  0  0  0  0  0  0
   -2.7642   -1.9293   -0.2785 Cl  0  0  0  0  0  0  0  0  0  0  0  0
   -3.6051    1.0753    0.0571 Cl  0  0  0  0  0  0  0  0  0  0  0  0
    5.0112   -0.1621   -1.8541 H   0  0  0  0  0  0  0  0  0  0  0  0
    6.4017   -0.5223   -0.8246 H   0  0  0  0  0  0  0  0  0  0  0  0
    5.5880    1.0432   -0.7032 H   0  0  0  0  0  0  0  0  0  0  0  0
    4.9876   -0.4833    1.1834 H   0  0  0  0  0  0  0  0  0  0  0  0
    4.3015   -1.6339    0.0217 H   0  0  0  0  0  0  0  0  0  0  0  0
    2.2114   -1.5023   -0.0374 H   0  0  0  0  0  0  0  0  0  0  0  0
    1.1400    2.0075    0.3697 H   0  0  0  0  0  0  0  0  0  0  0  0
   -1.2432    2.6271    0.3462 H   0  0  0  0  0  0  0  0  0  0  0  0
    0.0429   -2.0974   -0.1837 H   0  0  0  0  0  0  0  0  0  0  0  0
  1  2  1  0  0  0  0
  2  3  1  0  0  0  0
  3  4  2  0  0  0  0
  3  5  4  0  0  0  0
  5  6  1  0  0  0  0
  6  7  4  0  0  0  0
  7  8  4  0  0  0  0
  8  9  4  0  0  0  0
  9 10  4  0  0  0  0
  6 11  4  0  0  0  0
 10 11  4  0  0  0  0
 10 12  1  0  0  0  0
  9 13  1  0  0  0  0
  1 14  1  0  0  0  0
  1 15  1  0  0  0  0
  1 16  1  0  0  0  0
  2 17  1  0  0  0  0
  2 18  1  0  0  0  0
  5 19  1  0  0  0  0
  7 20  1  0  0  0  0
  8 21  1  0  0  0  0
 11 22  1  0  0  0  0
M  END
