 xtb: 6.7.1 (edcfbbe)
          04112511043D

 22 22  0     0  0            999 V2000
   -2.2562    1.6441    0.0251 C   0  0  0  0  0  0  0  0  0  0  0  0
   -2.1131    0.1592    0.3464 C   0  0  0  0  0  0  0  0  0  0  0  0
   -3.4739   -0.5309    0.2700 C   0  0  0  0  0  0  0  0  0  0  0  0
   -1.1290   -0.5251   -0.6153 C   0  0  0  0  0  0  0  0  0  0  0  0
    0.3149   -0.3075   -0.2833 C   0  0  0  0  0  0  0  0  0  0  0  0
    1.2672   -1.3011   -0.5369 C   0  0  0  0  0  0  0  0  0  0  0  0
    2.5514   -1.1408   -0.2688 N   0  0  0  0  0  0  0  0  0  0  0  0
    2.9158    0.0189    0.2668 C   0  0  0  0  0  0  0  0  0  0  0  0
    1.9829    1.0098    0.5289 C   0  0  0  0  0  0  0  0  0  0  0  0
    0.6971    0.8474    0.2541 N   0  0  0  0  0  0  0  0  0  0  0  0
   -2.6773    1.7761   -0.9695 H   0  0  0  0  0  0  0  0  0  0  0  0
   -1.2861    2.1290    0.0643 H   0  0  0  0  0  0  0  0  0  0  0  0
   -2.9164    2.1237    0.7437 H   0  0  0  0  0  0  0  0  0  0  0  0
   -1.7238    0.0584    1.3649 H   0  0  0  0  0  0  0  0  0  0  0  0
   -3.3966   -1.5775    0.5558 H   0  0  0  0  0  0  0  0  0  0  0  0
   -4.1797   -0.0455    0.9393 H   0  0  0  0  0  0  0  0  0  0  0  0
   -3.8685   -0.4766   -0.7422 H   0  0  0  0  0  0  0  0  0  0  0  0
   -1.3069   -0.1502   -1.6274 H   0  0  0  0  0  0  0  0  0  0  0  0
   -1.3130   -1.6013   -0.6287 H   0  0  0  0  0  0  0  0  0  0  0  0
    0.9886   -2.2530   -0.9680 H   0  0  0  0  0  0  0  0  0  0  0  0
    3.9666    0.1398    0.4840 H   0  0  0  0  0  0  0  0  0  0  0  0
    2.2588    1.9583    0.9675 H   0  0  0  0  0  0  0  0  0  0  0  0
  1  2  1  0  0  0  0
  2  3  1  0  0  0  0
  2  4  1  0  0  0  0
  4  5  1  0  0  0  0
  5  6  4  0  0  0  0
  6  7  4  0  0  0  0
  7  8  4  0  0  0  0
  8  9  4  0  0  0  0
  5 10  4  0  0  0  0
  9 10  4  0  0  0  0
  1 11  1  0  0  0  0
  1 12  1  0  0  0  0
  1 13  1  0  0  0  0
  2 14  1  0  0  0  0
  3 15  1  0  0  0  0
  3 16  1  0  0  0  0
  3 17  1  0  0  0  0
  4 18  1  0  0  0  0
  4 19  1  0  0  0  0
  6 20  1  0  0  0  0
  8 21  1  0  0  0  0
  9 22  1  0  0  0  0
M  END
