 xtb: 6.7.1 (edcfbbe)
          04112511583D

 18 17  0     0  0            999 V2000
   -2.0840    0.6223   -0.6679 C   0  0  0  0  0  0  0  0  0  0  0  0
   -1.3937    0.3202    0.6589 C   0  0  0  0  0  0  0  0  0  0  0  0
    0.0366   -0.2316    0.5249 C   0  0  0  0  0  0  0  0  0  0  0  0
    0.9630    0.7082   -0.2578 C   0  0  0  0  0  0  0  0  0  0  0  0
    2.4241    0.2945   -0.1205 C   0  0  0  0  0  0  0  0  0  0  0  0
    0.0471   -1.5402   -0.0179 O   0  0  0  0  0  0  0  0  0  0  0  0
   -3.0976    0.9673   -0.4796 H   0  0  0  0  0  0  0  0  0  0  0  0
   -1.5578    1.3996   -1.2152 H   0  0  0  0  0  0  0  0  0  0  0  0
   -2.1454   -0.2678   -1.2895 H   0  0  0  0  0  0  0  0  0  0  0  0
   -1.3500    1.2287    1.2613 H   0  0  0  0  0  0  0  0  0  0  0  0
   -1.9810   -0.4188    1.2085 H   0  0  0  0  0  0  0  0  0  0  0  0
    0.4424   -0.3639    1.5357 H   0  0  0  0  0  0  0  0  0  0  0  0
    0.6829    0.6905   -1.3128 H   0  0  0  0  0  0  0  0  0  0  0  0
    0.8288    1.7241    0.1156 H   0  0  0  0  0  0  0  0  0  0  0  0
    2.5453   -0.7472   -0.4086 H   0  0  0  0  0  0  0  0  0  0  0  0
    3.0571    0.9097   -0.7547 H   0  0  0  0  0  0  0  0  0  0  0  0
    2.7546    0.4025    0.9100 H   0  0  0  0  0  0  0  0  0  0  0  0
   -0.2833   -1.4966   -0.9260 H   0  0  0  0  0  0  0  0  0  0  0  0
  1  2  1  0  0  0  0
  2  3  1  0  0  0  0
  3  4  1  0  0  0  0
  4  5  1  0  0  0  0
  3  6  1  0  0  0  0
  1  7  1  0  0  0  0
  1  8  1  0  0  0  0
  1  9  1  0  0  0  0
  2 10  1  0  0  0  0
  2 11  1  0  0  0  0
  3 12  1  0  0  0  0
  4 13  1  0  0  0  0
  4 14  1  0  0  0  0
  5 15  1  0  0  0  0
  5 16  1  0  0  0  0
  5 17  1  0  0  0  0
  6 18  1  0  0  0  0
M  END
