 xtb: 6.7.1 (edcfbbe)
          04112511553D

 24 24  0     0  0            999 V2000
   -3.5942   -0.3282   -0.1924 C   0  0  0  0  0  0  0  0  0  0  0  0
   -2.1864   -0.5891    0.3308 C   0  0  0  0  0  0  0  0  0  0  0  0
   -1.1883    0.4387   -0.1994 C   0  0  0  0  0  0  0  0  0  0  0  0
    0.2165    0.2550    0.3700 C   0  0  0  0  0  0  0  0  0  0  0  0
    0.9061   -1.0424   -0.0614 C   0  0  0  0  0  0  0  0  0  0  0  0
    2.3818   -0.7509    0.1882 C   0  0  0  0  0  0  0  0  0  0  0  0
    2.5523    0.6863   -0.3102 C   0  0  0  0  0  0  0  0  0  0  0  0
    1.1879    1.3628   -0.0846 C   0  0  0  0  0  0  0  0  0  0  0  0
   -4.2893   -1.0698    0.1933 H   0  0  0  0  0  0  0  0  0  0  0  0
   -3.9379    0.6576    0.1131 H   0  0  0  0  0  0  0  0  0  0  0  0
   -3.6104   -0.3741   -1.2790 H   0  0  0  0  0  0  0  0  0  0  0  0
   -2.1935   -0.5534    1.4226 H   0  0  0  0  0  0  0  0  0  0  0  0
   -1.8711   -1.5905    0.0328 H   0  0  0  0  0  0  0  0  0  0  0  0
   -1.1471    0.3718   -1.2895 H   0  0  0  0  0  0  0  0  0  0  0  0
   -1.5428    1.4404    0.0579 H   0  0  0  0  0  0  0  0  0  0  0  0
    0.1521    0.2637    1.4633 H   0  0  0  0  0  0  0  0  0  0  0  0
    0.5539   -1.9095    0.4948 H   0  0  0  0  0  0  0  0  0  0  0  0
    0.7345   -1.2159   -1.1253 H   0  0  0  0  0  0  0  0  0  0  0  0
    2.5891   -0.8050    1.2582 H   0  0  0  0  0  0  0  0  0  0  0  0
    3.0424   -1.4487   -0.3245 H   0  0  0  0  0  0  0  0  0  0  0  0
    3.3556    1.2023    0.2138 H   0  0  0  0  0  0  0  0  0  0  0  0
    2.7974    0.6807   -1.3726 H   0  0  0  0  0  0  0  0  0  0  0  0
    1.2514    2.1522    0.6634 H   0  0  0  0  0  0  0  0  0  0  0  0
    0.8304    1.8154   -1.0099 H   0  0  0  0  0  0  0  0  0  0  0  0
  1  2  1  0  0  0  0
  2  3  1  0  0  0  0
  3  4  1  0  0  0  0
  4  5  1  0  0  0  0
  5  6  1  0  0  0  0
  6  7  1  0  0  0  0
  4  8  1  0  0  0  0
  7  8  1  0  0  0  0
  1  9  1  0  0  0  0
  1 10  1  0  0  0  0
  1 11  1  0  0  0  0
  2 12  1  0  0  0  0
  2 13  1  0  0  0  0
  3 14  1  0  0  0  0
  3 15  1  0  0  0  0
  4 16  1  0  0  0  0
  5 17  1  0  0  0  0
  5 18  1  0  0  0  0
  6 19  1  0  0  0  0
  6 20  1  0  0  0  0
  7 21  1  0  0  0  0
  7 22  1  0  0  0  0
  8 23  1  0  0  0  0
  8 24  1  0  0  0  0
M  END
