 xtb: 6.7.1 (edcfbbe)
          04112512203D

 18 17  0     0  0            999 V2000
   -2.3586    0.7437    0.0052 C   0  0  0  0  0  0  0  0  0  0  0  0
   -0.8418    0.8820   -0.0406 C   0  0  0  0  0  0  0  0  0  0  0  0
   -0.0998   -0.3418    0.5084 C   0  0  0  0  0  0  0  0  0  0  0  0
   -0.4714   -0.5570    1.5166 H   0  0  0  0  0  0  0  0  0  0  0  0
   -0.2945   -1.5755   -0.3697 C   0  0  0  0  0  0  0  0  0  0  0  0
    1.3960   -0.0276    0.6392 C   0  0  0  0  0  0  0  0  0  0  0  0
    1.9307    0.2937   -0.6292 O   0  0  0  0  0  0  0  0  0  0  0  0
   -2.6888    0.5138    1.0160 H   0  0  0  0  0  0  0  0  0  0  0  0
   -2.8262    1.6746   -0.3058 H   0  0  0  0  0  0  0  0  0  0  0  0
   -2.7021   -0.0445   -0.6586 H   0  0  0  0  0  0  0  0  0  0  0  0
   -0.5504    1.7539    0.5504 H   0  0  0  0  0  0  0  0  0  0  0  0
   -0.5138    1.0554   -1.0668 H   0  0  0  0  0  0  0  0  0  0  0  0
    0.2440   -2.4232    0.0480 H   0  0  0  0  0  0  0  0  0  0  0  0
    0.0904   -1.3787   -1.3672 H   0  0  0  0  0  0  0  0  0  0  0  0
   -1.3452   -1.8390   -0.4406 H   0  0  0  0  0  0  0  0  0  0  0  0
    1.9128   -0.9027    1.0574 H   0  0  0  0  0  0  0  0  0  0  0  0
    1.5300    0.8170    1.3300 H   0  0  0  0  0  0  0  0  0  0  0  0
    2.8751    0.4732   -0.5401 H   0  0  0  0  0  0  0  0  0  0  0  0
  1  2  1  0  0  0  0
  2  3  1  0  0  0  0
  3  4  1  0  0  0  0
  3  5  1  0  0  0  0
  3  6  1  0  0  0  0
  6  7  1  0  0  0  0
  1  8  1  0  0  0  0
  1  9  1  0  0  0  0
  1 10  1  0  0  0  0
  2 11  1  0  0  0  0
  2 12  1  0  0  0  0
  5 13  1  0  0  0  0
  5 14  1  0  0  0  0
  5 15  1  0  0  0  0
  6 16  1  0  0  0  0
  6 17  1  0  0  0  0
  7 18  1  0  0  0  0
M  END
