 xtb: 6.7.1 (edcfbbe)
          04112511233D

 26 25  0     0  0            999 V2000
   -2.4390   -0.8193   -0.3917 C   0  0  0  0  0  0  0  0  0  0  0  0
   -1.4423    0.1918    0.1806 C   0  0  0  0  0  0  0  0  0  0  0  0
   -1.3693   -0.0010    1.6953 C   0  0  0  0  0  0  0  0  0  0  0  0
   -0.0967    0.1093   -0.6013 C   0  0  0  0  0  0  0  0  0  0  0  0
    0.1964    1.4562   -1.2663 C   0  0  0  0  0  0  0  0  0  0  0  0
    1.1216   -0.4275    0.1847 C   0  0  0  0  0  0  0  0  0  0  0  0
    2.0745   -1.1641   -0.7607 C   0  0  0  0  0  0  0  0  0  0  0  0
    1.9080    0.6451    0.9397 C   0  0  0  0  0  0  0  0  0  0  0  0
   -2.5949   -0.6494   -1.4547 H   0  0  0  0  0  0  0  0  0  0  0  0
   -2.0696   -1.8336   -0.2540 H   0  0  0  0  0  0  0  0  0  0  0  0
   -3.4003   -0.7349    0.1108 H   0  0  0  0  0  0  0  0  0  0  0  0
   -1.8544    1.1926    0.0104 H   0  0  0  0  0  0  0  0  0  0  0  0
   -2.3519    0.1878    2.1237 H   0  0  0  0  0  0  0  0  0  0  0  0
   -0.6672    0.6869    2.1552 H   0  0  0  0  0  0  0  0  0  0  0  0
   -1.0859   -1.0179    1.9545 H   0  0  0  0  0  0  0  0  0  0  0  0
   -0.2598   -0.6097   -1.4119 H   0  0  0  0  0  0  0  0  0  0  0  0
   -0.6115    1.7144   -1.9480 H   0  0  0  0  0  0  0  0  0  0  0  0
    1.1181    1.4132   -1.8413 H   0  0  0  0  0  0  0  0  0  0  0  0
    0.2839    2.2480   -0.5270 H   0  0  0  0  0  0  0  0  0  0  0  0
    0.7611   -1.1617    0.9096 H   0  0  0  0  0  0  0  0  0  0  0  0
    2.4404   -0.4981   -1.5389 H   0  0  0  0  0  0  0  0  0  0  0  0
    2.9317   -1.5438   -0.2091 H   0  0  0  0  0  0  0  0  0  0  0  0
    1.5750   -2.0055   -1.2360 H   0  0  0  0  0  0  0  0  0  0  0  0
    2.4504    1.2835    0.2473 H   0  0  0  0  0  0  0  0  0  0  0  0
    2.6329    0.1711    1.5985 H   0  0  0  0  0  0  0  0  0  0  0  0
    1.2596    1.2707    1.5456 H   0  0  0  0  0  0  0  0  0  0  0  0
  1  2  1  0  0  0  0
  2  3  1  0  0  0  0
  2  4  1  0  0  0  0
  4  5  1  0  0  0  0
  4  6  1  0  0  0  0
  6  7  1  0  0  0  0
  6  8  1  0  0  0  0
  1  9  1  0  0  0  0
  1 10  1  0  0  0  0
  1 11  1  0  0  0  0
  2 12  1  0  0  0  0
  3 13  1  0  0  0  0
  3 14  1  0  0  0  0
  3 15  1  0  0  0  0
  4 16  1  0  0  0  0
  5 17  1  0  0  0  0
  5 18  1  0  0  0  0
  5 19  1  0  0  0  0
  6 20  1  0  0  0  0
  7 21  1  0  0  0  0
  7 22  1  0  0  0  0
  7 23  1  0  0  0  0
  8 24  1  0  0  0  0
  8 25  1  0  0  0  0
  8 26  1  0  0  0  0
M  END
