 xtb: 6.7.1 (edcfbbe)
          04112512223D

 16 15  0     0  0            999 V2000
   -1.9351    0.2682   -0.5962 C   0  0  0  0  0  0  0  0  0  0  0  0
   -1.0516    0.2473    0.6474 C   0  0  0  0  0  0  0  0  0  0  0  0
   -0.0053   -0.7625    0.5517 N   0  0  0  0  0  0  0  0  0  0  0  0
    1.0365   -0.5199   -0.4326 C   0  0  0  0  0  0  0  0  0  0  0  0
    1.9297    0.6981   -0.1711 C   0  0  0  0  0  0  0  0  0  0  0  0
   -1.4040    0.6795   -1.4504 H   0  0  0  0  0  0  0  0  0  0  0  0
   -2.2541   -0.7421   -0.8355 H   0  0  0  0  0  0  0  0  0  0  0  0
   -2.8116    0.8829   -0.4107 H   0  0  0  0  0  0  0  0  0  0  0  0
   -1.6652   -0.0254    1.5101 H   0  0  0  0  0  0  0  0  0  0  0  0
   -0.6552    1.2605    0.8290 H   0  0  0  0  0  0  0  0  0  0  0  0
    0.4275   -0.8737    1.4632 H   0  0  0  0  0  0  0  0  0  0  0  0
    1.6583   -1.4196   -0.4524 H   0  0  0  0  0  0  0  0  0  0  0  0
    0.5609   -0.4238   -1.4103 H   0  0  0  0  0  0  0  0  0  0  0  0
    2.3868    0.6289    0.8145 H   0  0  0  0  0  0  0  0  0  0  0  0
    2.7184    0.7425   -0.9169 H   0  0  0  0  0  0  0  0  0  0  0  0
    1.3571    1.6212   -0.2241 H   0  0  0  0  0  0  0  0  0  0  0  0
  1  2  1  0  0  0  0
  2  3  1  0  0  0  0
  3  4  1  0  0  0  0
  4  5  1  0  0  0  0
  1  6  1  0  0  0  0
  1  7  1  0  0  0  0
  1  8  1  0  0  0  0
  2  9  1  0  0  0  0
  2 10  1  0  0  0  0
  3 11  1  0  0  0  0
  4 12  1  0  0  0  0
  4 13  1  0  0  0  0
  5 14  1  0  0  0  0
  5 15  1  0  0  0  0
  5 16  1  0  0  0  0
M  END
