 xtb: 6.7.1 (edcfbbe)
          04112511243D

 20 19  0     0  0            999 V2000
   -0.2832   -2.5585    0.3743 C   0  0  0  0  0  0  0  0  0  0  0  0
   -0.0462   -1.1204   -0.0464 C   0  0  0  0  0  0  0  0  0  0  0  0
    1.2398   -0.7370    0.4233 O   0  0  0  0  0  0  0  0  0  0  0  0
    1.7956    0.3797   -0.0741 C   0  0  0  0  0  0  0  0  0  0  0  0
    1.2649    1.0410   -0.9386 O   0  0  0  0  0  0  0  0  0  0  0  0
    3.1096    0.6680    0.5678 C   0  0  0  0  0  0  0  0  0  0  0  0
   -0.9948   -0.2768    0.5903 O   0  0  0  0  0  0  0  0  0  0  0  0
   -1.7883    0.6139   -0.0327 C   0  0  0  0  0  0  0  0  0  0  0  0
   -2.4544    1.3316    0.6780 O   0  0  0  0  0  0  0  0  0  0  0  0
   -1.8336    0.6594   -1.5274 C   0  0  0  0  0  0  0  0  0  0  0  0
    0.4928   -3.1874   -0.0487 H   0  0  0  0  0  0  0  0  0  0  0  0
   -1.2568   -2.8827    0.0224 H   0  0  0  0  0  0  0  0  0  0  0  0
   -0.2516   -2.6183    1.4576 H   0  0  0  0  0  0  0  0  0  0  0  0
   -0.0739   -0.9909   -1.1346 H   0  0  0  0  0  0  0  0  0  0  0  0
    3.6025   -0.2614    0.8328 H   0  0  0  0  0  0  0  0  0  0  0  0
    3.7195    1.2698   -0.0982 H   0  0  0  0  0  0  0  0  0  0  0  0
    2.9243    1.2321    1.4802 H   0  0  0  0  0  0  0  0  0  0  0  0
   -0.8639    0.9811   -1.9071 H   0  0  0  0  0  0  0  0  0  0  0  0
   -2.0814   -0.3149   -1.9406 H   0  0  0  0  0  0  0  0  0  0  0  0
   -2.5882    1.3844   -1.8161 H   0  0  0  0  0  0  0  0  0  0  0  0
  1  2  1  0  0  0  0
  2  3  1  0  0  0  0
  3  4  1  0  0  0  0
  4  5  2  0  0  0  0
  4  6  1  0  0  0  0
  2  7  1  0  0  0  0
  7  8  1  0  0  0  0
  8  9  2  0  0  0  0
  8 10  1  0  0  0  0
  1 11  1  0  0  0  0
  1 12  1  0  0  0  0
  1 13  1  0  0  0  0
  2 14  1  0  0  0  0
  6 15  1  0  0  0  0
  6 16  1  0  0  0  0
  6 17  1  0  0  0  0
 10 18  1  0  0  0  0
 10 19  1  0  0  0  0
 10 20  1  0  0  0  0
M  END
