 xtb: 6.7.1 (edcfbbe)
          04112512153D

 21 20  0     0  0            999 V2000
    2.1688   -1.2781   -0.2682 C   0  0  0  0  0  0  0  0  0  0  0  0
    1.6450    0.1459   -0.4061 C   0  0  0  0  0  0  0  0  0  0  0  0
    0.3422    0.3835    0.3720 C   0  0  0  0  0  0  0  0  0  0  0  0
    0.4809    0.0255    1.3987 H   0  0  0  0  0  0  0  0  0  0  0  0
   -0.8622   -0.3724   -0.2640 C   0  0  0  0  0  0  0  0  0  0  0  0
   -1.4231   -1.3997    0.7184 C   0  0  0  0  0  0  0  0  0  0  0  0
   -1.9752    0.5735   -0.7150 C   0  0  0  0  0  0  0  0  0  0  0  0
    0.1164    1.7717    0.5394 O   0  0  0  0  0  0  0  0  0  0  0  0
    2.3524   -1.5133    0.7774 H   0  0  0  0  0  0  0  0  0  0  0  0
    3.1022   -1.3867   -0.8145 H   0  0  0  0  0  0  0  0  0  0  0  0
    1.4561   -1.9980   -0.6617 H   0  0  0  0  0  0  0  0  0  0  0  0
    2.3939    0.8414   -0.0195 H   0  0  0  0  0  0  0  0  0  0  0  0
    1.4800    0.3799   -1.4612 H   0  0  0  0  0  0  0  0  0  0  0  0
   -0.5003   -0.9072   -1.1481 H   0  0  0  0  0  0  0  0  0  0  0  0
   -1.8172   -0.8993    1.6002 H   0  0  0  0  0  0  0  0  0  0  0  0
   -2.2273   -1.9673    0.2558 H   0  0  0  0  0  0  0  0  0  0  0  0
   -0.6480   -2.0948    1.0321 H   0  0  0  0  0  0  0  0  0  0  0  0
   -2.8233   -0.0057   -1.0716 H   0  0  0  0  0  0  0  0  0  0  0  0
   -1.6423    1.2168   -1.5262 H   0  0  0  0  0  0  0  0  0  0  0  0
   -2.3033    1.1956    0.1144 H   0  0  0  0  0  0  0  0  0  0  0  0
    0.0934    2.1931   -0.3303 H   0  0  0  0  0  0  0  0  0  0  0  0
  1  2  1  0  0  0  0
  2  3  1  0  0  0  0
  3  4  1  0  0  0  0
  3  5  1  0  0  0  0
  5  6  1  0  0  0  0
  5  7  1  0  0  0  0
  3  8  1  0  0  0  0
  1  9  1  0  0  0  0
  1 10  1  0  0  0  0
  1 11  1  0  0  0  0
  2 12  1  0  0  0  0
  2 13  1  0  0  0  0
  5 14  1  0  0  0  0
  6 15  1  0  0  0  0
  6 16  1  0  0  0  0
  6 17  1  0  0  0  0
  7 18  1  0  0  0  0
  7 19  1  0  0  0  0
  7 20  1  0  0  0  0
  8 21  1  0  0  0  0
M  END
