 xtb: 6.7.1 (edcfbbe)
          04112511543D

 23 24  0     0  0            999 V2000
   -3.6532   -0.6996    0.0867 C   0  0  0  0  0  0  0  0  0  0  0  0
   -3.1024    0.1008    1.0738 C   0  0  0  0  0  0  0  0  0  0  0  0
   -1.8631    0.6869    0.8848 C   0  0  0  0  0  0  0  0  0  0  0  0
   -1.1775    0.4689   -0.3025 C   0  0  0  0  0  0  0  0  0  0  0  0
   -1.7244   -0.3333   -1.2949 C   0  0  0  0  0  0  0  0  0  0  0  0
   -2.9644   -0.9145   -1.0955 C   0  0  0  0  0  0  0  0  0  0  0  0
    0.0350    1.1094   -0.5262 O   0  0  0  0  0  0  0  0  0  0  0  0
    1.1904    0.4778   -0.1468 C   0  0  0  0  0  0  0  0  0  0  0  0
    1.2242   -0.7748    0.4531 C   0  0  0  0  0  0  0  0  0  0  0  0
    2.4424   -1.3333    0.8008 C   0  0  0  0  0  0  0  0  0  0  0  0
    3.6238   -0.6564    0.5565 C   0  0  0  0  0  0  0  0  0  0  0  0
    3.5858    0.5933   -0.0423 C   0  0  0  0  0  0  0  0  0  0  0  0
    2.3782    1.1623   -0.3941 C   0  0  0  0  0  0  0  0  0  0  0  0
   -4.6190   -1.1556    0.2385 H   0  0  0  0  0  0  0  0  0  0  0  0
   -3.6365    0.2703    1.9958 H   0  0  0  0  0  0  0  0  0  0  0  0
   -1.4190    1.3133    1.6434 H   0  0  0  0  0  0  0  0  0  0  0  0
   -1.1735   -0.4898   -2.2099 H   0  0  0  0  0  0  0  0  0  0  0  0
   -3.3907   -1.5373   -1.8665 H   0  0  0  0  0  0  0  0  0  0  0  0
    0.3038   -1.3065    0.6453 H   0  0  0  0  0  0  0  0  0  0  0  0
    2.4611   -2.3067    1.2668 H   0  0  0  0  0  0  0  0  0  0  0  0
    4.5690   -1.0982    0.8304 H   0  0  0  0  0  0  0  0  0  0  0  0
    4.5020    1.1293   -0.2368 H   0  0  0  0  0  0  0  0  0  0  0  0
    2.3269    2.1333   -0.8609 H   0  0  0  0  0  0  0  0  0  0  0  0
  1  2  4  0  0  0  0
  2  3  4  0  0  0  0
  3  4  4  0  0  0  0
  4  5  4  0  0  0  0
  1  6  4  0  0  0  0
  5  6  4  0  0  0  0
  4  7  1  0  0  0  0
  7  8  1  0  0  0  0
  8  9  4  0  0  0  0
  9 10  4  0  0  0  0
 10 11  4  0  0  0  0
 11 12  4  0  0  0  0
  8 13  4  0  0  0  0
 12 13  4  0  0  0  0
  1 14  1  0  0  0  0
  2 15  1  0  0  0  0
  3 16  1  0  0  0  0
  5 17  1  0  0  0  0
  6 18  1  0  0  0  0
  9 19  1  0  0  0  0
 10 20  1  0  0  0  0
 11 21  1  0  0  0  0
 12 22  1  0  0  0  0
 13 23  1  0  0  0  0
M  END
