 xtb: 6.7.1 (edcfbbe)
          04112511233D

 24 24  0     0  0            999 V2000
    1.6798    0.3471   -1.4321 C   0  0  0  0  0  0  0  0  0  0  0  0
    2.2533   -0.2905   -0.1677 C   0  0  0  0  0  0  0  0  0  0  0  0
    3.2680    0.6574    0.4698 C   0  0  0  0  0  0  0  0  0  0  0  0
    1.1641   -0.6909    0.8695 C   0  0  0  0  0  0  0  0  0  0  0  0
   -0.2391   -0.3496    0.4587 C   0  0  0  0  0  0  0  0  0  0  0  0
   -0.7871    0.8900    0.7662 C   0  0  0  0  0  0  0  0  0  0  0  0
   -2.0733    1.2142    0.3728 C   0  0  0  0  0  0  0  0  0  0  0  0
   -2.8344    0.2993   -0.3347 C   0  0  0  0  0  0  0  0  0  0  0  0
   -2.3020   -0.9415   -0.6416 C   0  0  0  0  0  0  0  0  0  0  0  0
   -1.0152   -1.2615   -0.2469 C   0  0  0  0  0  0  0  0  0  0  0  0
    1.1617    1.2742   -1.1978 H   0  0  0  0  0  0  0  0  0  0  0  0
    0.9775   -0.3215   -1.9240 H   0  0  0  0  0  0  0  0  0  0  0  0
    2.4858    0.5701   -2.1280 H   0  0  0  0  0  0  0  0  0  0  0  0
    2.7844   -1.1993   -0.4697 H   0  0  0  0  0  0  0  0  0  0  0  0
    3.7221    0.2026    1.3474 H   0  0  0  0  0  0  0  0  0  0  0  0
    4.0586    0.8987   -0.2374 H   0  0  0  0  0  0  0  0  0  0  0  0
    2.7834    1.5843    0.7690 H   0  0  0  0  0  0  0  0  0  0  0  0
    1.3802   -0.1878    1.8133 H   0  0  0  0  0  0  0  0  0  0  0  0
    1.2237   -1.7656    1.0481 H   0  0  0  0  0  0  0  0  0  0  0  0
   -0.2000    1.6078    1.3215 H   0  0  0  0  0  0  0  0  0  0  0  0
   -2.4838    2.1825    0.6196 H   0  0  0  0  0  0  0  0  0  0  0  0
   -3.8386    0.5506   -0.6423 H   0  0  0  0  0  0  0  0  0  0  0  0
   -2.8919   -1.6621   -1.1890 H   0  0  0  0  0  0  0  0  0  0  0  0
   -0.6061   -2.2326   -0.4877 H   0  0  0  0  0  0  0  0  0  0  0  0
  1  2  1  0  0  0  0
  2  3  1  0  0  0  0
  2  4  1  0  0  0  0
  4  5  1  0  0  0  0
  5  6  4  0  0  0  0
  6  7  4  0  0  0  0
  7  8  4  0  0  0  0
  8  9  4  0  0  0  0
  5 10  4  0  0  0  0
  9 10  4  0  0  0  0
  1 11  1  0  0  0  0
  1 12  1  0  0  0  0
  1 13  1  0  0  0  0
  2 14  1  0  0  0  0
  3 15  1  0  0  0  0
  3 16  1  0  0  0  0
  3 17  1  0  0  0  0
  4 18  1  0  0  0  0
  4 19  1  0  0  0  0
  6 20  1  0  0  0  0
  7 21  1  0  0  0  0
  8 22  1  0  0  0  0
  9 23  1  0  0  0  0
 10 24  1  0  0  0  0
M  END
