 xtb: 6.7.1 (edcfbbe)
          04112511443D

 25 25  0     0  0            999 V2000
    3.0392   -0.9598    0.9620 C   0  0  0  0  0  0  0  0  0  0  0  0
    2.5973    0.0964   -0.0045 C   0  0  0  0  0  0  0  0  0  0  0  0
    3.4670    0.8693   -0.6371 C   0  0  0  0  0  0  0  0  0  0  0  0
    1.1127    0.2543   -0.2305 C   0  0  0  0  0  0  0  0  0  0  0  0
    0.9685    0.8687   -1.1253 H   0  0  0  0  0  0  0  0  0  0  0  0
    0.3900   -1.0776   -0.4512 C   0  0  0  0  0  0  0  0  0  0  0  0
   -1.0496   -0.8111   -0.8789 C   0  0  0  0  0  0  0  0  0  0  0  0
   -1.7203    0.1619    0.0485 C   0  0  0  0  0  0  0  0  0  0  0  0
   -1.0251    0.9630    0.8716 C   0  0  0  0  0  0  0  0  0  0  0  0
    0.4566    0.9854    0.9496 C   0  0  0  0  0  0  0  0  0  0  0  0
   -3.1693    0.2147    0.0407 C   0  0  0  0  0  0  0  0  0  0  0  0
   -3.9008   -0.4752   -0.6473 O   0  0  0  0  0  0  0  0  0  0  0  0
    2.8737   -1.9487    0.5373 H   0  0  0  0  0  0  0  0  0  0  0  0
    4.0977   -0.8552    1.1831 H   0  0  0  0  0  0  0  0  0  0  0  0
    2.4802   -0.8997    1.8933 H   0  0  0  0  0  0  0  0  0  0  0  0
    3.1557    1.6208   -1.3432 H   0  0  0  0  0  0  0  0  0  0  0  0
    4.5284    0.7820   -0.4777 H   0  0  0  0  0  0  0  0  0  0  0  0
    0.9000   -1.6583   -1.2208 H   0  0  0  0  0  0  0  0  0  0  0  0
    0.3882   -1.6553    0.4735 H   0  0  0  0  0  0  0  0  0  0  0  0
   -1.0756   -0.4021   -1.8933 H   0  0  0  0  0  0  0  0  0  0  0  0
   -1.6320   -1.7351   -0.8973 H   0  0  0  0  0  0  0  0  0  0  0  0
   -1.5540    1.6332    1.5364 H   0  0  0  0  0  0  0  0  0  0  0  0
    0.8061    2.0194    0.9934 H   0  0  0  0  0  0  0  0  0  0  0  0
    0.7514    0.5178    1.8944 H   0  0  0  0  0  0  0  0  0  0  0  0
   -3.6085    0.9569    0.7343 H   0  0  0  0  0  0  0  0  0  0  0  0
  1  2  1  0  0  0  0
  2  3  2  0  0  0  0
  2  4  1  0  0  0  0
  4  5  1  0  0  0  0
  4  6  1  0  0  0  0
  6  7  1  0  0  0  0
  7  8  1  0  0  0  0
  8  9  2  0  0  0  0
  4 10  1  0  0  0  0
  9 10  1  0  0  0  0
  8 11  1  0  0  0  0
 11 12  2  0  0  0  0
  1 13  1  0  0  0  0
  1 14  1  0  0  0  0
  1 15  1  0  0  0  0
  3 16  1  0  0  0  0
  3 17  1  0  0  0  0
  6 18  1  0  0  0  0
  6 19  1  0  0  0  0
  7 20  1  0  0  0  0
  7 21  1  0  0  0  0
  9 22  1  0  0  0  0
 10 23  1  0  0  0  0
 10 24  1  0  0  0  0
 11 25  1  0  0  0  0
M  END
