 xtb: 6.7.1 (edcfbbe)
          04112512083D

 17 16  0     0  0            999 V2000
   -2.5847    0.1486    1.0224 C   0  0  0  0  0  0  0  0  0  0  0  0
   -2.1701    0.4920   -0.4036 C   0  0  0  0  0  0  0  0  0  0  0  0
   -0.8576   -0.1752   -0.7888 C   0  0  0  0  0  0  0  0  0  0  0  0
    0.1960    0.4042   -0.0050 O   0  0  0  0  0  0  0  0  0  0  0  0
    1.3851   -0.1817   -0.0319 C   0  0  0  0  0  0  0  0  0  0  0  0
    1.6215   -1.1729   -0.6938 O   0  0  0  0  0  0  0  0  0  0  0  0
    2.3707    0.5170    0.8554 C   0  0  0  0  0  0  0  0  0  0  0  0
   -1.8157    0.4642    1.7225 H   0  0  0  0  0  0  0  0  0  0  0  0
   -3.5132    0.6519    1.2761 H   0  0  0  0  0  0  0  0  0  0  0  0
   -2.7312   -0.9237    1.1288 H   0  0  0  0  0  0  0  0  0  0  0  0
   -2.0509    1.5712   -0.5034 H   0  0  0  0  0  0  0  0  0  0  0  0
   -2.9347    0.1610   -1.1062 H   0  0  0  0  0  0  0  0  0  0  0  0
   -0.8808   -1.2539   -0.6002 H   0  0  0  0  0  0  0  0  0  0  0  0
   -0.6236   -0.0181   -1.8469 H   0  0  0  0  0  0  0  0  0  0  0  0
    2.0426    1.5332    1.0448 H   0  0  0  0  0  0  0  0  0  0  0  0
    3.3526    0.4989    0.3927 H   0  0  0  0  0  0  0  0  0  0  0  0
    2.4283   -0.0242    1.7975 H   0  0  0  0  0  0  0  0  0  0  0  0
  1  2  1  0  0  0  0
  2  3  1  0  0  0  0
  3  4  1  0  0  0  0
  4  5  1  0  0  0  0
  5  6  2  0  0  0  0
  5  7  1  0  0  0  0
  1  8  1  0  0  0  0
  1  9  1  0  0  0  0
  1 10  1  0  0  0  0
  2 11  1  0  0  0  0
  2 12  1  0  0  0  0
  3 13  1  0  0  0  0
  3 14  1  0  0  0  0
  7 15  1  0  0  0  0
  7 16  1  0  0  0  0
  7 17  1  0  0  0  0
M  END
