 xtb: 6.7.1 (edcfbbe)
          04112512153D

 21 20  0     0  0            999 V2000
    2.1236    0.5599   -0.9659 C   0  0  0  0  0  0  0  0  0  0  0  0
    1.6126   -0.6274   -0.1565 C   0  0  0  0  0  0  0  0  0  0  0  0
    0.2951   -0.3857    0.6041 C   0  0  0  0  0  0  0  0  0  0  0  0
    0.2503   -1.1608    1.3906 H   0  0  0  0  0  0  0  0  0  0  0  0
   -0.9878   -0.5608   -0.2442 C   0  0  0  0  0  0  0  0  0  0  0  0
   -2.2134   -0.6352    0.6716 C   0  0  0  0  0  0  0  0  0  0  0  0
   -1.1831    0.5517   -1.2730 C   0  0  0  0  0  0  0  0  0  0  0  0
    0.3707    0.8855    1.2221 O   0  0  0  0  0  0  0  0  0  0  0  0
    2.1159    1.4535   -0.3482 H   0  0  0  0  0  0  0  0  0  0  0  0
    1.5162    0.7413   -1.8459 H   0  0  0  0  0  0  0  0  0  0  0  0
    3.1439    0.3666   -1.2884 H   0  0  0  0  0  0  0  0  0  0  0  0
    1.4855   -1.4993   -0.7994 H   0  0  0  0  0  0  0  0  0  0  0  0
    2.3711   -0.8699    0.5911 H   0  0  0  0  0  0  0  0  0  0  0  0
   -0.8932   -1.5212   -0.7613 H   0  0  0  0  0  0  0  0  0  0  0  0
   -3.0904   -0.9186    0.0950 H   0  0  0  0  0  0  0  0  0  0  0  0
   -2.0692   -1.3750    1.4566 H   0  0  0  0  0  0  0  0  0  0  0  0
   -2.4132    0.3312    1.1293 H   0  0  0  0  0  0  0  0  0  0  0  0
   -0.9499    1.5161   -0.8280 H   0  0  0  0  0  0  0  0  0  0  0  0
   -2.2151    0.5661   -1.6156 H   0  0  0  0  0  0  0  0  0  0  0  0
   -0.5445    0.4043   -2.1382 H   0  0  0  0  0  0  0  0  0  0  0  0
   -0.3849    0.9870    1.8147 H   0  0  0  0  0  0  0  0  0  0  0  0
  1  2  1  0  0  0  0
  2  3  1  0  0  0  0
  3  4  1  0  0  0  0
  3  5  1  0  0  0  0
  5  6  1  0  0  0  0
  5  7  1  0  0  0  0
  3  8  1  0  0  0  0
  1  9  1  0  0  0  0
  1 10  1  0  0  0  0
  1 11  1  0  0  0  0
  2 12  1  0  0  0  0
  2 13  1  0  0  0  0
  5 14  1  0  0  0  0
  6 15  1  0  0  0  0
  6 16  1  0  0  0  0
  6 17  1  0  0  0  0
  7 18  1  0  0  0  0
  7 19  1  0  0  0  0
  7 20  1  0  0  0  0
  8 21  1  0  0  0  0
M  END
