 xtb: 6.7.1 (edcfbbe)
          04112511443D

 25 25  0     0  0            999 V2000
    3.3928   -0.4959   -0.9509 C   0  0  0  0  0  0  0  0  0  0  0  0
    2.5449   -0.0386    0.1987 C   0  0  0  0  0  0  0  0  0  0  0  0
    3.0422    0.1042    1.4165 C   0  0  0  0  0  0  0  0  0  0  0  0
    1.0984    0.2055   -0.1638 C   0  0  0  0  0  0  0  0  0  0  0  0
    1.0803    0.6639   -1.1587 H   0  0  0  0  0  0  0  0  0  0  0  0
    0.3382   -1.1382   -0.2390 C   0  0  0  0  0  0  0  0  0  0  0  0
   -1.1082   -1.0505    0.2798 C   0  0  0  0  0  0  0  0  0  0  0  0
   -1.7237    0.2847   -0.0071 C   0  0  0  0  0  0  0  0  0  0  0  0
   -0.9983    1.3814    0.2744 C   0  0  0  0  0  0  0  0  0  0  0  0
    0.3807    1.1889    0.7828 C   0  0  0  0  0  0  0  0  0  0  0  0
   -3.0575    0.3711   -0.5585 C   0  0  0  0  0  0  0  0  0  0  0  0
   -3.7693   -0.5727   -0.8548 O   0  0  0  0  0  0  0  0  0  0  0  0
    4.4027   -0.7262   -0.6238 H   0  0  0  0  0  0  0  0  0  0  0  0
    2.9603   -1.3833   -1.4097 H   0  0  0  0  0  0  0  0  0  0  0  0
    3.4414    0.2810   -1.7128 H   0  0  0  0  0  0  0  0  0  0  0  0
    2.4568    0.4315    2.2567 H   0  0  0  0  0  0  0  0  0  0  0  0
    4.0779   -0.1060    1.6233 H   0  0  0  0  0  0  0  0  0  0  0  0
    0.3214   -1.4794   -1.2743 H   0  0  0  0  0  0  0  0  0  0  0  0
    0.8675   -1.8898    0.3486 H   0  0  0  0  0  0  0  0  0  0  0  0
   -1.7204   -1.8393   -0.1591 H   0  0  0  0  0  0  0  0  0  0  0  0
   -1.1052   -1.1949    1.3636 H   0  0  0  0  0  0  0  0  0  0  0  0
   -1.3791    2.3756    0.0975 H   0  0  0  0  0  0  0  0  0  0  0  0
    0.9309    2.1261    0.8404 H   0  0  0  0  0  0  0  0  0  0  0  0
    0.3340    0.7439    1.7795 H   0  0  0  0  0  0  0  0  0  0  0  0
   -3.4238    1.4043   -0.7106 H   0  0  0  0  0  0  0  0  0  0  0  0
  1  2  1  0  0  0  0
  2  3  2  0  0  0  0
  2  4  1  0  0  0  0
  4  5  1  0  0  0  0
  4  6  1  0  0  0  0
  6  7  1  0  0  0  0
  7  8  1  0  0  0  0
  8  9  2  0  0  0  0
  4 10  1  0  0  0  0
  9 10  1  0  0  0  0
  8 11  1  0  0  0  0
 11 12  2  0  0  0  0
  1 13  1  0  0  0  0
  1 14  1  0  0  0  0
  1 15  1  0  0  0  0
  3 16  1  0  0  0  0
  3 17  1  0  0  0  0
  6 18  1  0  0  0  0
  6 19  1  0  0  0  0
  7 20  1  0  0  0  0
  7 21  1  0  0  0  0
  9 22  1  0  0  0  0
 10 23  1  0  0  0  0
 10 24  1  0  0  0  0
 11 25  1  0  0  0  0
M  END
