 xtb: 6.7.1 (edcfbbe)
          04112511103D

 18 17  0     0  0            999 V2000
    2.1170   -1.0166   -0.4193 C   0  0  0  0  0  0  0  0  0  0  0  0
    1.7536    0.3777    0.0774 C   0  0  0  0  0  0  0  0  0  0  0  0
    0.3723    0.4616    0.7287 C   0  0  0  0  0  0  0  0  0  0  0  0
   -0.8020    0.2098   -0.2382 C   0  0  0  0  0  0  0  0  0  0  0  0
   -0.4727    0.3996   -1.2660 H   0  0  0  0  0  0  0  0  0  0  0  0
   -1.3521   -1.2113   -0.1283 C   0  0  0  0  0  0  0  0  0  0  0  0
   -1.8401    1.1599   -0.0391 O   0  0  0  0  0  0  0  0  0  0  0  0
    2.0283   -1.7433    0.3850 H   0  0  0  0  0  0  0  0  0  0  0  0
    3.1430   -1.0283   -0.7796 H   0  0  0  0  0  0  0  0  0  0  0  0
    1.4687   -1.3191   -1.2373 H   0  0  0  0  0  0  0  0  0  0  0  0
    2.4949    0.6924    0.8155 H   0  0  0  0  0  0  0  0  0  0  0  0
    1.7988    1.0825   -0.7558 H   0  0  0  0  0  0  0  0  0  0  0  0
    0.3208   -0.2423    1.5619 H   0  0  0  0  0  0  0  0  0  0  0  0
    0.2530    1.4707    1.1310 H   0  0  0  0  0  0  0  0  0  0  0  0
   -2.1841   -1.3391   -0.8171 H   0  0  0  0  0  0  0  0  0  0  0  0
   -0.5828   -1.9376   -0.3672 H   0  0  0  0  0  0  0  0  0  0  0  0
   -1.7053   -1.3987    0.8840 H   0  0  0  0  0  0  0  0  0  0  0  0
   -2.2468    0.9979    0.8236 H   0  0  0  0  0  0  0  0  0  0  0  0
  1  2  1  0  0  0  0
  2  3  1  0  0  0  0
  3  4  1  0  0  0  0
  4  5  1  0  0  0  0
  4  6  1  0  0  0  0
  4  7  1  0  0  0  0
  1  8  1  0  0  0  0
  1  9  1  0  0  0  0
  1 10  1  0  0  0  0
  2 11  1  0  0  0  0
  2 12  1  0  0  0  0
  3 13  1  0  0  0  0
  3 14  1  0  0  0  0
  6 15  1  0  0  0  0
  6 16  1  0  0  0  0
  6 17  1  0  0  0  0
  7 18  1  0  0  0  0
M  END
