 xtb: 6.7.1 (edcfbbe)
          04112510563D

 24 24  0     0  0            999 V2000
    2.7607    1.5706    0.4182 C   0  0  0  0  0  0  0  0  0  0  0  0
    2.1422    0.3135    1.0246 C   0  0  0  0  0  0  0  0  0  0  0  0
    1.3643   -0.6110    0.0619 C   0  0  0  0  0  0  0  0  0  0  0  0
    1.4929   -1.6336    0.4359 H   0  0  0  0  0  0  0  0  0  0  0  0
    1.9038   -0.5829   -1.3718 C   0  0  0  0  0  0  0  0  0  0  0  0
   -0.1235   -0.3463    0.0383 C   0  0  0  0  0  0  0  0  0  0  0  0
   -0.6565    0.9337   -0.0450 C   0  0  0  0  0  0  0  0  0  0  0  0
   -2.0255    1.1325   -0.0902 C   0  0  0  0  0  0  0  0  0  0  0  0
   -2.8902    0.0526   -0.0593 C   0  0  0  0  0  0  0  0  0  0  0  0
   -2.3735   -1.2292    0.0188 C   0  0  0  0  0  0  0  0  0  0  0  0
   -1.0046   -1.4222    0.0677 C   0  0  0  0  0  0  0  0  0  0  0  0
    3.2294    2.1542    1.2080 H   0  0  0  0  0  0  0  0  0  0  0  0
    3.5248    1.3160   -0.3108 H   0  0  0  0  0  0  0  0  0  0  0  0
    2.0207    2.1990   -0.0682 H   0  0  0  0  0  0  0  0  0  0  0  0
    2.9544   -0.2678    1.4675 H   0  0  0  0  0  0  0  0  0  0  0  0
    1.4709    0.6003    1.8375 H   0  0  0  0  0  0  0  0  0  0  0  0
    1.3833   -1.3262   -1.9723 H   0  0  0  0  0  0  0  0  0  0  0  0
    1.7460    0.3907   -1.8271 H   0  0  0  0  0  0  0  0  0  0  0  0
    2.9661   -0.8136   -1.3828 H   0  0  0  0  0  0  0  0  0  0  0  0
   -0.0043    1.7915   -0.0705 H   0  0  0  0  0  0  0  0  0  0  0  0
   -2.4183    2.1371   -0.1509 H   0  0  0  0  0  0  0  0  0  0  0  0
   -3.9582    0.2083   -0.0950 H   0  0  0  0  0  0  0  0  0  0  0  0
   -3.0380   -2.0805    0.0440 H   0  0  0  0  0  0  0  0  0  0  0  0
   -0.6120   -2.4276    0.1311 H   0  0  0  0  0  0  0  0  0  0  0  0
  1  2  1  0  0  0  0
  2  3  1  0  0  0  0
  3  4  1  0  0  0  0
  3  5  1  0  0  0  0
  3  6  1  0  0  0  0
  6  7  4  0  0  0  0
  7  8  4  0  0  0  0
  8  9  4  0  0  0  0
  9 10  4  0  0  0  0
  6 11  4  0  0  0  0
 10 11  4  0  0  0  0
  1 12  1  0  0  0  0
  1 13  1  0  0  0  0
  1 14  1  0  0  0  0
  2 15  1  0  0  0  0
  2 16  1  0  0  0  0
  5 17  1  0  0  0  0
  5 18  1  0  0  0  0
  5 19  1  0  0  0  0
  7 20  1  0  0  0  0
  8 21  1  0  0  0  0
  9 22  1  0  0  0  0
 10 23  1  0  0  0  0
 11 24  1  0  0  0  0
M  END
