 xtb: 6.7.1 (edcfbbe)
          04112512193D

 17 16  0     0  0            999 V2000
   -2.8974   -0.1412    0.1949 C   0  0  0  0  0  0  0  0  0  0  0  0
   -1.6527    0.7352    0.2170 C   0  0  0  0  0  0  0  0  0  0  0  0
   -0.4043   -0.0398   -0.1185 C   0  0  0  0  0  0  0  0  0  0  0  0
   -0.3391   -1.2422   -0.2562 O   0  0  0  0  0  0  0  0  0  0  0  0
    0.6402    0.7744   -0.2517 O   0  0  0  0  0  0  0  0  0  0  0  0
    1.9251    0.1969   -0.5384 C   0  0  0  0  0  0  0  0  0  0  0  0
    2.6408   -0.2132    0.7396 C   0  0  0  0  0  0  0  0  0  0  0  0
   -3.7703    0.4413    0.4726 H   0  0  0  0  0  0  0  0  0  0  0  0
   -3.0502   -0.5572   -0.7977 H   0  0  0  0  0  0  0  0  0  0  0  0
   -2.7862   -0.9692    0.8903 H   0  0  0  0  0  0  0  0  0  0  0  0
   -1.5047    1.1701    1.2076 H   0  0  0  0  0  0  0  0  0  0  0  0
   -1.7346    1.5604   -0.4916 H   0  0  0  0  0  0  0  0  0  0  0  0
    1.7807   -0.6677   -1.1935 H   0  0  0  0  0  0  0  0  0  0  0  0
    2.4684    0.9836   -1.0628 H   0  0  0  0  0  0  0  0  0  0  0  0
    2.0855   -1.0032    1.2405 H   0  0  0  0  0  0  0  0  0  0  0  0
    3.6320   -0.5804    0.4947 H   0  0  0  0  0  0  0  0  0  0  0  0
    2.7280    0.6383    1.4091 H   0  0  0  0  0  0  0  0  0  0  0  0
  1  2  1  0  0  0  0
  2  3  1  0  0  0  0
  3  4  2  0  0  0  0
  3  5  1  0  0  0  0
  5  6  1  0  0  0  0
  6  7  1  0  0  0  0
  1  8  1  0  0  0  0
  1  9  1  0  0  0  0
  1 10  1  0  0  0  0
  2 11  1  0  0  0  0
  2 12  1  0  0  0  0
  6 13  1  0  0  0  0
  6 14  1  0  0  0  0
  7 15  1  0  0  0  0
  7 16  1  0  0  0  0
  7 17  1  0  0  0  0
M  END
