 xtb: 6.7.1 (edcfbbe)
          04112511023D

 15 14  0     0  0            999 V2000
   -1.7772    0.8576   -0.1650 C   0  0  0  0  0  0  0  0  0  0  0  0
   -1.2906   -0.5848   -0.0664 C   0  0  0  0  0  0  0  0  0  0  0  0
    0.0736   -0.7553    0.6142 C   0  0  0  0  0  0  0  0  0  0  0  0
    1.1909   -0.4720   -0.2143 O   0  0  0  0  0  0  0  0  0  0  0  0
    1.6749    0.8533   -0.1656 C   0  0  0  0  0  0  0  0  0  0  0  0
   -1.7297    1.3440    0.8069 H   0  0  0  0  0  0  0  0  0  0  0  0
   -1.1805    1.4292   -0.8707 H   0  0  0  0  0  0  0  0  0  0  0  0
   -2.8091    0.8758   -0.5078 H   0  0  0  0  0  0  0  0  0  0  0  0
   -1.2301   -1.0252   -1.0630 H   0  0  0  0  0  0  0  0  0  0  0  0
   -2.0128   -1.1614    0.5145 H   0  0  0  0  0  0  0  0  0  0  0  0
    0.1222   -0.1495    1.5281 H   0  0  0  0  0  0  0  0  0  0  0  0
    0.1980   -1.8082    0.8869 H   0  0  0  0  0  0  0  0  0  0  0  0
    1.8633    1.1619    0.8683 H   0  0  0  0  0  0  0  0  0  0  0  0
    0.9842    1.5614   -0.6301 H   0  0  0  0  0  0  0  0  0  0  0  0
    2.6112    0.8471   -0.7198 H   0  0  0  0  0  0  0  0  0  0  0  0
  1  2  1  0  0  0  0
  2  3  1  0  0  0  0
  3  4  1  0  0  0  0
  4  5  1  0  0  0  0
  1  6  1  0  0  0  0
  1  7  1  0  0  0  0
  1  8  1  0  0  0  0
  2  9  1  0  0  0  0
  2 10  1  0  0  0  0
  3 11  1  0  0  0  0
  3 12  1  0  0  0  0
  5 13  1  0  0  0  0
  5 14  1  0  0  0  0
  5 15  1  0  0  0  0
M  END
