 xtb: 6.7.1 (edcfbbe)
          04112511103D

 18 17  0     0  0            999 V2000
    2.8166   -0.1996    0.2079 C   0  0  0  0  0  0  0  0  0  0  0  0
    1.4846    0.2946   -0.3419 C   0  0  0  0  0  0  0  0  0  0  0  0
    0.3142   -0.5365    0.1785 C   0  0  0  0  0  0  0  0  0  0  0  0
   -1.0329   -0.0247   -0.3377 C   0  0  0  0  0  0  0  0  0  0  0  0
   -0.9912    0.0324   -1.4388 H   0  0  0  0  0  0  0  0  0  0  0  0
   -2.1720   -0.9577    0.0736 C   0  0  0  0  0  0  0  0  0  0  0  0
   -1.2216    1.2815    0.1847 O   0  0  0  0  0  0  0  0  0  0  0  0
    2.9866   -1.2346   -0.0802 H   0  0  0  0  0  0  0  0  0  0  0  0
    2.8256   -0.1397    1.2937 H   0  0  0  0  0  0  0  0  0  0  0  0
    3.6345    0.4044   -0.1768 H   0  0  0  0  0  0  0  0  0  0  0  0
    1.3277    1.3357   -0.0544 H   0  0  0  0  0  0  0  0  0  0  0  0
    1.5004    0.2483   -1.4335 H   0  0  0  0  0  0  0  0  0  0  0  0
    0.4361   -1.5767   -0.1268 H   0  0  0  0  0  0  0  0  0  0  0  0
    0.2984   -0.4944    1.2691 H   0  0  0  0  0  0  0  0  0  0  0  0
   -3.1228   -0.5956   -0.3112 H   0  0  0  0  0  0  0  0  0  0  0  0
   -1.9964   -1.9542   -0.3201 H   0  0  0  0  0  0  0  0  0  0  0  0
   -2.2303   -1.0107    1.1581 H   0  0  0  0  0  0  0  0  0  0  0  0
   -2.0859    1.6122   -0.0932 H   0  0  0  0  0  0  0  0  0  0  0  0
  1  2  1  0  0  0  0
  2  3  1  0  0  0  0
  3  4  1  0  0  0  0
  4  5  1  0  0  0  0
  4  6  1  0  0  0  0
  4  7  1  0  0  0  0
  1  8  1  0  0  0  0
  1  9  1  0  0  0  0
  1 10  1  0  0  0  0
  2 11  1  0  0  0  0
  2 12  1  0  0  0  0
  3 13  1  0  0  0  0
  3 14  1  0  0  0  0
  6 15  1  0  0  0  0
  6 16  1  0  0  0  0
  6 17  1  0  0  0  0
  7 18  1  0  0  0  0
M  END
