 xtb: 6.7.1 (edcfbbe)
          04112511203D

 21 20  0     0  0            999 V2000
   -2.5157   -0.0730    0.6465 C   0  0  0  0  0  0  0  0  0  0  0  0
   -1.6359    0.7633   -0.2792 C   0  0  0  0  0  0  0  0  0  0  0  0
   -0.5078   -0.0602   -0.9129 C   0  0  0  0  0  0  0  0  0  0  0  0
    0.8058   -0.1222   -0.0984 C   0  0  0  0  0  0  0  0  0  0  0  0
    1.5685    1.2031   -0.2077 C   0  0  0  0  0  0  0  0  0  0  0  0
    1.6751   -1.2619   -0.6384 C   0  0  0  0  0  0  0  0  0  0  0  0
    0.5638   -0.4325    1.2710 O   0  0  0  0  0  0  0  0  0  0  0  0
   -1.9149   -0.5905    1.3894 H   0  0  0  0  0  0  0  0  0  0  0  0
   -3.0581   -0.8212    0.0721 H   0  0  0  0  0  0  0  0  0  0  0  0
   -3.2408    0.5566    1.1575 H   0  0  0  0  0  0  0  0  0  0  0  0
   -2.2603    1.1750   -1.0749 H   0  0  0  0  0  0  0  0  0  0  0  0
   -1.2228    1.6108    0.2716 H   0  0  0  0  0  0  0  0  0  0  0  0
   -0.8700   -1.0787   -1.0641 H   0  0  0  0  0  0  0  0  0  0  0  0
   -0.2575    0.3513   -1.8915 H   0  0  0  0  0  0  0  0  0  0  0  0
    1.8819    1.3714   -1.2337 H   0  0  0  0  0  0  0  0  0  0  0  0
    2.4518    1.1703    0.4264 H   0  0  0  0  0  0  0  0  0  0  0  0
    0.9468    2.0391    0.1051 H   0  0  0  0  0  0  0  0  0  0  0  0
    1.1814   -2.2128   -0.4561 H   0  0  0  0  0  0  0  0  0  0  0  0
    2.6325   -1.2707   -0.1245 H   0  0  0  0  0  0  0  0  0  0  0  0
    1.8394   -1.1408   -1.7044 H   0  0  0  0  0  0  0  0  0  0  0  0
    0.2118    0.3539    1.7078 H   0  0  0  0  0  0  0  0  0  0  0  0
  1  2  1  0  0  0  0
  2  3  1  0  0  0  0
  3  4  1  0  0  0  0
  4  5  1  0  0  0  0
  4  6  1  0  0  0  0
  4  7  1  0  0  0  0
  1  8  1  0  0  0  0
  1  9  1  0  0  0  0
  1 10  1  0  0  0  0
  2 11  1  0  0  0  0
  2 12  1  0  0  0  0
  3 13  1  0  0  0  0
  3 14  1  0  0  0  0
  5 15  1  0  0  0  0
  5 16  1  0  0  0  0
  5 17  1  0  0  0  0
  6 18  1  0  0  0  0
  6 19  1  0  0  0  0
  6 20  1  0  0  0  0
  7 21  1  0  0  0  0
M  END
