 xtb: 6.7.1 (edcfbbe)
          04112511193D

 14 13  0     0  0            999 V2000
   -1.0600   -0.2089    0.7029 C   0  0  0  0  0  0  0  0  0  0  0  0
    0.2264    0.5607    0.3334 C   0  0  0  0  0  0  0  0  0  0  0  0
    1.1785   -0.3489   -0.4644 C   0  0  0  0  0  0  0  0  0  0  0  0
    1.6925   -1.4063    0.3077 O   0  0  0  0  0  0  0  0  0  0  0  0
   -0.0597    1.7412   -0.3835 O   0  0  0  0  0  0  0  0  0  0  0  0
   -1.9207   -0.3581   -0.4045 O   0  0  0  0  0  0  0  0  0  0  0  0
   -1.5751    0.2954    1.5270 H   0  0  0  0  0  0  0  0  0  0  0  0
   -0.7794   -1.2160    1.0183 H   0  0  0  0  0  0  0  0  0  0  0  0
    0.7158    0.8901    1.2557 H   0  0  0  0  0  0  0  0  0  0  0  0
    1.9861    0.2613   -0.8888 H   0  0  0  0  0  0  0  0  0  0  0  0
    0.6210   -0.8199   -1.2795 H   0  0  0  0  0  0  0  0  0  0  0  0
    2.2853   -1.0532    0.9859 H   0  0  0  0  0  0  0  0  0  0  0  0
   -0.4216    1.4945   -1.2479 H   0  0  0  0  0  0  0  0  0  0  0  0
   -2.3715    0.4834   -0.5631 H   0  0  0  0  0  0  0  0  0  0  0  0
  1  2  1  0  0  0  0
  2  3  1  0  0  0  0
  3  4  1  0  0  0  0
  2  5  1  0  0  0  0
  1  6  1  0  0  0  0
  1  7  1  0  0  0  0
  1  8  1  0  0  0  0
  2  9  1  0  0  0  0
  3 10  1  0  0  0  0
  3 11  1  0  0  0  0
  4 12  1  0  0  0  0
  5 13  1  0  0  0  0
  6 14  1  0  0  0  0
M  END
