 xtb: 6.7.1 (edcfbbe)
          04112511583D

 18 17  0     0  0            999 V2000
   -1.6186    0.6659   -0.9651 C   0  0  0  0  0  0  0  0  0  0  0  0
   -1.3801    0.3587    0.5087 C   0  0  0  0  0  0  0  0  0  0  0  0
   -0.0234   -0.2982    0.8208 C   0  0  0  0  0  0  0  0  0  0  0  0
    1.2011    0.5777    0.4923 C   0  0  0  0  0  0  0  0  0  0  0  0
    1.7207    0.4432   -0.9356 C   0  0  0  0  0  0  0  0  0  0  0  0
    0.1235   -1.5454    0.1660 O   0  0  0  0  0  0  0  0  0  0  0  0
   -2.6698    0.8880   -1.1332 H   0  0  0  0  0  0  0  0  0  0  0  0
   -1.0367    1.5264   -1.2820 H   0  0  0  0  0  0  0  0  0  0  0  0
   -1.3417   -0.1898   -1.5763 H   0  0  0  0  0  0  0  0  0  0  0  0
   -1.4568    1.2737    1.0980 H   0  0  0  0  0  0  0  0  0  0  0  0
   -2.1622   -0.3215    0.8582 H   0  0  0  0  0  0  0  0  0  0  0  0
   -0.0088   -0.4695    1.9130 H   0  0  0  0  0  0  0  0  0  0  0  0
    0.9474    1.6166    0.7062 H   0  0  0  0  0  0  0  0  0  0  0  0
    2.0072    0.2842    1.1681 H   0  0  0  0  0  0  0  0  0  0  0  0
    1.9067   -0.6033   -1.1607 H   0  0  0  0  0  0  0  0  0  0  0  0
    1.0128    0.8289   -1.6610 H   0  0  0  0  0  0  0  0  0  0  0  0
    2.6529    0.9941   -1.0351 H   0  0  0  0  0  0  0  0  0  0  0  0
   -0.6156   -2.1170    0.4113 H   0  0  0  0  0  0  0  0  0  0  0  0
  1  2  1  0  0  0  0
  2  3  1  0  0  0  0
  3  4  1  0  0  0  0
  4  5  1  0  0  0  0
  3  6  1  0  0  0  0
  1  7  1  0  0  0  0
  1  8  1  0  0  0  0
  1  9  1  0  0  0  0
  2 10  1  0  0  0  0
  2 11  1  0  0  0  0
  3 12  1  0  0  0  0
  4 13  1  0  0  0  0
  4 14  1  0  0  0  0
  5 15  1  0  0  0  0
  5 16  1  0  0  0  0
  5 17  1  0  0  0  0
  6 18  1  0  0  0  0
M  END
