 xtb: 6.7.1 (edcfbbe)
          04112512203D

 18 17  0     0  0            999 V2000
   -1.5444    1.1065   -0.5363 C   0  0  0  0  0  0  0  0  0  0  0  0
   -1.1519    0.4225    0.7704 C   0  0  0  0  0  0  0  0  0  0  0  0
   -0.0677   -0.6590    0.6344 C   0  0  0  0  0  0  0  0  0  0  0  0
   -0.0615   -1.2281    1.5721 H   0  0  0  0  0  0  0  0  0  0  0  0
   -0.3482   -1.6240   -0.5148 C   0  0  0  0  0  0  0  0  0  0  0  0
    1.3491   -0.0712    0.5080 C   0  0  0  0  0  0  0  0  0  0  0  0
    1.5561    0.6589   -0.6903 O   0  0  0  0  0  0  0  0  0  0  0  0
   -0.6653    1.4367   -1.0804 H   0  0  0  0  0  0  0  0  0  0  0  0
   -2.1029    0.4265   -1.1736 H   0  0  0  0  0  0  0  0  0  0  0  0
   -2.1728    1.9694   -0.3280 H   0  0  0  0  0  0  0  0  0  0  0  0
   -2.0431   -0.0394    1.2023 H   0  0  0  0  0  0  0  0  0  0  0  0
   -0.8003    1.1741    1.4817 H   0  0  0  0  0  0  0  0  0  0  0  0
    0.3248   -2.4764   -0.4590 H   0  0  0  0  0  0  0  0  0  0  0  0
   -0.1879   -1.1267   -1.4672 H   0  0  0  0  0  0  0  0  0  0  0  0
   -1.3719   -1.9861   -0.4678 H   0  0  0  0  0  0  0  0  0  0  0  0
    2.0670   -0.9025    0.5077 H   0  0  0  0  0  0  0  0  0  0  0  0
    1.5544    0.5515    1.3830 H   0  0  0  0  0  0  0  0  0  0  0  0
    1.7682    1.5751   -0.4813 H   0  0  0  0  0  0  0  0  0  0  0  0
  1  2  1  0  0  0  0
  2  3  1  0  0  0  0
  3  4  1  0  0  0  0
  3  5  1  0  0  0  0
  3  6  1  0  0  0  0
  6  7  1  0  0  0  0
  1  8  1  0  0  0  0
  1  9  1  0  0  0  0
  1 10  1  0  0  0  0
  2 11  1  0  0  0  0
  2 12  1  0  0  0  0
  5 13  1  0  0  0  0
  5 14  1  0  0  0  0
  5 15  1  0  0  0  0
  6 16  1  0  0  0  0
  6 17  1  0  0  0  0
  7 18  1  0  0  0  0
M  END
