 xtb: 6.7.1 (edcfbbe)
          04112511533D

 26 27  0     0  0            999 V2000
    0.5495    1.4235    1.0435 C   0  0  0  0  0  0  0  0  0  0  0  0
    1.8949    1.6501    1.2126 C   0  0  0  0  0  0  0  0  0  0  0  0
    2.8446    0.8680    0.5486 C   0  0  0  0  0  0  0  0  0  0  0  0
    2.3941   -0.1573   -0.3073 C   0  0  0  0  0  0  0  0  0  0  0  0
    1.0232   -0.3686   -0.4718 C   0  0  0  0  0  0  0  0  0  0  0  0
    0.0922    0.4073    0.1962 C   0  0  0  0  0  0  0  0  0  0  0  0
   -1.3463    0.1649    0.0017 C   0  0  0  0  0  0  0  0  0  0  0  0
   -1.8629   -0.0818   -1.2706 C   0  0  0  0  0  0  0  0  0  0  0  0
   -3.2103   -0.3113   -1.4764 C   0  0  0  0  0  0  0  0  0  0  0  0
   -4.0579   -0.2983   -0.3851 C   0  0  0  0  0  0  0  0  0  0  0  0
   -3.6014   -0.0671    0.8980 C   0  0  0  0  0  0  0  0  0  0  0  0
   -2.2491    0.1623    1.0627 C   0  0  0  0  0  0  0  0  0  0  0  0
   -1.8040    0.3642    2.3299 F   0  0  0  0  0  0  0  0  0  0  0  0
   -5.3847   -0.5214   -0.5713 F   0  0  0  0  0  0  0  0  0  0  0  0
    3.3608   -0.9977   -1.0178 C   0  0  0  0  0  0  0  0  0  0  0  0
    4.5780   -0.8726   -0.9121 O   0  0  0  0  0  0  0  0  0  0  0  0
    2.8277   -1.9195   -1.8008 O   0  0  0  0  0  0  0  0  0  0  0  0
    4.1382    1.1353    0.7588 O   0  0  0  0  0  0  0  0  0  0  0  0
   -0.1596    2.0488    1.5628 H   0  0  0  0  0  0  0  0  0  0  0  0
    2.2518    2.4344    1.8601 H   0  0  0  0  0  0  0  0  0  0  0  0
    0.7020   -1.1701   -1.1177 H   0  0  0  0  0  0  0  0  0  0  0  0
   -1.1908   -0.0748   -2.1128 H   0  0  0  0  0  0  0  0  0  0  0  0
   -3.6053   -0.4954   -2.4614 H   0  0  0  0  0  0  0  0  0  0  0  0
   -4.2696   -0.0685    1.7427 H   0  0  0  0  0  0  0  0  0  0  0  0
    3.5076   -2.4552   -2.2534 H   0  0  0  0  0  0  0  0  0  0  0  0
    4.6970    0.5147    0.2383 H   0  0  0  0  0  0  0  0  0  0  0  0
  1  2  4  0  0  0  0
  2  3  4  0  0  0  0
  3  4  4  0  0  0  0
  4  5  4  0  0  0  0
  1  6  4  0  0  0  0
  5  6  4  0  0  0  0
  6  7  1  0  0  0  0
  7  8  4  0  0  0  0
  8  9  4  0  0  0  0
  9 10  4  0  0  0  0
 10 11  4  0  0  0  0
  7 12  4  0  0  0  0
 11 12  4  0  0  0  0
 12 13  1  0  0  0  0
 10 14  1  0  0  0  0
  4 15  1  0  0  0  0
 15 16  2  0  0  0  0
 15 17  1  0  0  0  0
  3 18  1  0  0  0  0
  1 19  1  0  0  0  0
  2 20  1  0  0  0  0
  5 21  1  0  0  0  0
  8 22  1  0  0  0  0
  9 23  1  0  0  0  0
 11 24  1  0  0  0  0
 17 25  1  0  0  0  0
 18 26  1  0  0  0  0
M  END
