 xtb: 6.7.1 (edcfbbe)
          04112511043D

 22 22  0     0  0            999 V2000
   -1.9893    0.9072    1.2346 C   0  0  0  0  0  0  0  0  0  0  0  0
   -2.0942   -0.2570    0.2535 C   0  0  0  0  0  0  0  0  0  0  0  0
   -3.5227   -0.3906   -0.2671 C   0  0  0  0  0  0  0  0  0  0  0  0
   -1.1259   -0.0597   -0.9266 C   0  0  0  0  0  0  0  0  0  0  0  0
    0.3018   -0.0497   -0.4848 C   0  0  0  0  0  0  0  0  0  0  0  0
    0.9286   -1.1941    0.0171 C   0  0  0  0  0  0  0  0  0  0  0  0
    2.1821   -1.1876    0.4373 N   0  0  0  0  0  0  0  0  0  0  0  0
    2.8385   -0.0353    0.3579 C   0  0  0  0  0  0  0  0  0  0  0  0
    2.2339    1.1020   -0.1550 C   0  0  0  0  0  0  0  0  0  0  0  0
    0.9755    1.0941   -0.5719 N   0  0  0  0  0  0  0  0  0  0  0  0
   -2.2465    1.8413    0.7412 H   0  0  0  0  0  0  0  0  0  0  0  0
   -0.9770    0.9952    1.6238 H   0  0  0  0  0  0  0  0  0  0  0  0
   -2.6666    0.7599    2.0722 H   0  0  0  0  0  0  0  0  0  0  0  0
   -1.8219   -1.1804    0.7767 H   0  0  0  0  0  0  0  0  0  0  0  0
   -3.6097   -1.2378   -0.9430 H   0  0  0  0  0  0  0  0  0  0  0  0
   -4.2127   -0.5386    0.5597 H   0  0  0  0  0  0  0  0  0  0  0  0
   -3.8151    0.5097   -0.8021 H   0  0  0  0  0  0  0  0  0  0  0  0
   -1.3421    0.8884   -1.4192 H   0  0  0  0  0  0  0  0  0  0  0  0
   -1.2694   -0.8726   -1.6412 H   0  0  0  0  0  0  0  0  0  0  0  0
    0.4116   -2.1415    0.0792 H   0  0  0  0  0  0  0  0  0  0  0  0
    3.8601   -0.0395    0.7080 H   0  0  0  0  0  0  0  0  0  0  0  0
    2.7584    2.0431   -0.2387 H   0  0  0  0  0  0  0  0  0  0  0  0
  1  2  1  0  0  0  0
  2  3  1  0  0  0  0
  2  4  1  0  0  0  0
  4  5  1  0  0  0  0
  5  6  4  0  0  0  0
  6  7  4  0  0  0  0
  7  8  4  0  0  0  0
  8  9  4  0  0  0  0
  5 10  4  0  0  0  0
  9 10  4  0  0  0  0
  1 11  1  0  0  0  0
  1 12  1  0  0  0  0
  1 13  1  0  0  0  0
  2 14  1  0  0  0  0
  3 15  1  0  0  0  0
  3 16  1  0  0  0  0
  3 17  1  0  0  0  0
  4 18  1  0  0  0  0
  4 19  1  0  0  0  0
  6 20  1  0  0  0  0
  8 21  1  0  0  0  0
  9 22  1  0  0  0  0
M  END
