 xtb: 6.7.1 (edcfbbe)
          04112511493D

 21 20  0     0  0            999 V2000
    1.5565    0.2411   -1.1918 C   0  0  0  0  0  0  0  0  0  0  0  0
    1.1130   -0.2141    0.1972 C   0  0  0  0  0  0  0  0  0  0  0  0
    0.9347   -1.2935    0.1922 H   0  0  0  0  0  0  0  0  0  0  0  0
   -0.1277    0.5193    0.7324 C   0  0  0  0  0  0  0  0  0  0  0  0
   -1.5065    0.1423    0.1644 C   0  0  0  0  0  0  0  0  0  0  0  0
   -1.7725    0.7153   -1.2267 C   0  0  0  0  0  0  0  0  0  0  0  0
   -1.7504   -1.3654    0.1751 C   0  0  0  0  0  0  0  0  0  0  0  0
    2.1812   -0.0599    1.1262 O   0  0  0  0  0  0  0  0  0  0  0  0
    2.5534   -0.1467   -1.3915 H   0  0  0  0  0  0  0  0  0  0  0  0
    0.8854   -0.1354   -1.9553 H   0  0  0  0  0  0  0  0  0  0  0  0
    1.5828    1.3270   -1.2503 H   0  0  0  0  0  0  0  0  0  0  0  0
   -0.1498    0.3189    1.8078 H   0  0  0  0  0  0  0  0  0  0  0  0
    0.0195    1.5950    0.6018 H   0  0  0  0  0  0  0  0  0  0  0  0
   -2.2350    0.6014    0.8445 H   0  0  0  0  0  0  0  0  0  0  0  0
   -1.5321    1.7749   -1.2608 H   0  0  0  0  0  0  0  0  0  0  0  0
   -2.8241    0.5959   -1.4779 H   0  0  0  0  0  0  0  0  0  0  0  0
   -1.1887    0.2018   -1.9843 H   0  0  0  0  0  0  0  0  0  0  0  0
   -2.7943   -1.5749   -0.0463 H   0  0  0  0  0  0  0  0  0  0  0  0
   -1.1405   -1.8628   -0.5748 H   0  0  0  0  0  0  0  0  0  0  0  0
   -1.5145   -1.7858    1.1498 H   0  0  0  0  0  0  0  0  0  0  0  0
    2.4222    0.8763    1.1655 H   0  0  0  0  0  0  0  0  0  0  0  0
  1  2  1  0  0  0  0
  2  3  1  0  0  0  0
  2  4  1  0  0  0  0
  4  5  1  0  0  0  0
  5  6  1  0  0  0  0
  5  7  1  0  0  0  0
  2  8  1  0  0  0  0
  1  9  1  0  0  0  0
  1 10  1  0  0  0  0
  1 11  1  0  0  0  0
  4 12  1  0  0  0  0
  4 13  1  0  0  0  0
  5 14  1  0  0  0  0
  6 15  1  0  0  0  0
  6 16  1  0  0  0  0
  6 17  1  0  0  0  0
  7 18  1  0  0  0  0
  7 19  1  0  0  0  0
  7 20  1  0  0  0  0
  8 21  1  0  0  0  0
M  END
