 xtb: 6.7.1 (edcfbbe)
          04112511403D

 22 23  0     0  0            999 V2000
   -3.3373    0.6446    0.4728 C   0  0  0  0  0  0  0  0  0  0  0  0
   -3.1366    0.6976   -0.8963 C   0  0  0  0  0  0  0  0  0  0  0  0
   -1.9306    0.2883   -1.4372 C   0  0  0  0  0  0  0  0  0  0  0  0
   -0.9154   -0.1853   -0.6163 C   0  0  0  0  0  0  0  0  0  0  0  0
   -1.1249   -0.2408    0.7553 C   0  0  0  0  0  0  0  0  0  0  0  0
   -2.3283    0.1761    1.2970 C   0  0  0  0  0  0  0  0  0  0  0  0
    0.3885   -0.6521   -1.2245 C   0  0  0  0  0  0  0  0  0  0  0  0
    1.5201   -0.3861   -0.3750 N   0  0  0  0  0  0  0  0  0  0  0  0
    2.1689   -1.2758    0.4308 C   0  0  0  0  0  0  0  0  0  0  0  0
    3.1257   -0.5611    1.0917 C   0  0  0  0  0  0  0  0  0  0  0  0
    3.0728    0.7461    0.7151 N   0  0  0  0  0  0  0  0  0  0  0  0
    2.0996    0.8136   -0.1570 C   0  0  0  0  0  0  0  0  0  0  0  0
   -4.2757    0.9684    0.8964 H   0  0  0  0  0  0  0  0  0  0  0  0
   -3.9188    1.0628   -1.5441 H   0  0  0  0  0  0  0  0  0  0  0  0
   -1.7767    0.3349   -2.5052 H   0  0  0  0  0  0  0  0  0  0  0  0
   -0.3428   -0.6041    1.4066 H   0  0  0  0  0  0  0  0  0  0  0  0
   -2.4771    0.1331    2.3653 H   0  0  0  0  0  0  0  0  0  0  0  0
    0.3433   -1.7316   -1.3988 H   0  0  0  0  0  0  0  0  0  0  0  0
    0.5421   -0.1535   -2.1855 H   0  0  0  0  0  0  0  0  0  0  0  0
    1.9109   -2.3139    0.4617 H   0  0  0  0  0  0  0  0  0  0  0  0
    3.8473   -0.8972    1.8090 H   0  0  0  0  0  0  0  0  0  0  0  0
    1.7892    1.7113   -0.6524 H   0  0  0  0  0  0  0  0  0  0  0  0
  1  2  4  0  0  0  0
  2  3  4  0  0  0  0
  3  4  4  0  0  0  0
  4  5  4  0  0  0  0
  1  6  4  0  0  0  0
  5  6  4  0  0  0  0
  4  7  1  0  0  0  0
  7  8  1  0  0  0  0
  8  9  4  0  0  0  0
  9 10  2  0  0  0  0
 10 11  4  0  0  0  0
  8 12  4  0  0  0  0
 11 12  2  0  0  0  0
  1 13  1  0  0  0  0
  2 14  1  0  0  0  0
  3 15  1  0  0  0  0
  5 16  1  0  0  0  0
  6 17  1  0  0  0  0
  7 18  1  0  0  0  0
  7 19  1  0  0  0  0
  9 20  1  0  0  0  0
 10 21  1  0  0  0  0
 12 22  1  0  0  0  0
M  END
