 xtb: 6.7.1 (edcfbbe)
          04112511443D

 25 25  0     0  0            999 V2000
    3.5699    0.3078   -0.7748 C   0  0  0  0  0  0  0  0  0  0  0  0
    2.5757   -0.1553    0.2462 C   0  0  0  0  0  0  0  0  0  0  0  0
    2.9480   -0.6096    1.4323 C   0  0  0  0  0  0  0  0  0  0  0  0
    1.1278   -0.0322   -0.1726 C   0  0  0  0  0  0  0  0  0  0  0  0
    1.0905    0.0174   -1.2657 H   0  0  0  0  0  0  0  0  0  0  0  0
    0.2516   -1.2070    0.2698 C   0  0  0  0  0  0  0  0  0  0  0  0
   -1.1244   -1.0861   -0.3766 C   0  0  0  0  0  0  0  0  0  0  0  0
   -1.7045    0.2820   -0.1555 C   0  0  0  0  0  0  0  0  0  0  0  0
   -0.9456    1.3328    0.1944 C   0  0  0  0  0  0  0  0  0  0  0  0
    0.5251    1.2666    0.3823 C   0  0  0  0  0  0  0  0  0  0  0  0
   -3.1361    0.4453   -0.3183 C   0  0  0  0  0  0  0  0  0  0  0  0
   -3.9227   -0.4388   -0.6081 O   0  0  0  0  0  0  0  0  0  0  0  0
    4.5820    0.2708   -0.3819 H   0  0  0  0  0  0  0  0  0  0  0  0
    3.5162   -0.3232   -1.6611 H   0  0  0  0  0  0  0  0  0  0  0  0
    3.3483    1.3290   -1.0813 H   0  0  0  0  0  0  0  0  0  0  0  0
    2.2433   -0.9430    2.1737 H   0  0  0  0  0  0  0  0  0  0  0  0
    3.9864   -0.6726    1.7103 H   0  0  0  0  0  0  0  0  0  0  0  0
    0.7174   -2.1507   -0.0152 H   0  0  0  0  0  0  0  0  0  0  0  0
    0.1378   -1.1971    1.3540 H   0  0  0  0  0  0  0  0  0  0  0  0
   -1.0580   -1.2707   -1.4528 H   0  0  0  0  0  0  0  0  0  0  0  0
   -1.8161   -1.8284    0.0279 H   0  0  0  0  0  0  0  0  0  0  0  0
   -1.4118    2.2938    0.3678 H   0  0  0  0  0  0  0  0  0  0  0  0
    0.9901    2.1365   -0.0871 H   0  0  0  0  0  0  0  0  0  0  0  0
    0.7392    1.3395    1.4538 H   0  0  0  0  0  0  0  0  0  0  0  0
   -3.5051    1.4759   -0.1558 H   0  0  0  0  0  0  0  0  0  0  0  0
  1  2  1  0  0  0  0
  2  3  2  0  0  0  0
  2  4  1  0  0  0  0
  4  5  1  0  0  0  0
  4  6  1  0  0  0  0
  6  7  1  0  0  0  0
  7  8  1  0  0  0  0
  8  9  2  0  0  0  0
  4 10  1  0  0  0  0
  9 10  1  0  0  0  0
  8 11  1  0  0  0  0
 11 12  2  0  0  0  0
  1 13  1  0  0  0  0
  1 14  1  0  0  0  0
  1 15  1  0  0  0  0
  3 16  1  0  0  0  0
  3 17  1  0  0  0  0
  6 18  1  0  0  0  0
  6 19  1  0  0  0  0
  7 20  1  0  0  0  0
  7 21  1  0  0  0  0
  9 22  1  0  0  0  0
 10 23  1  0  0  0  0
 10 24  1  0  0  0  0
 11 25  1  0  0  0  0
M  END
