 xtb: 6.7.1 (edcfbbe)
          04112512193D

 17 16  0     0  0            999 V2000
   -2.5852   -0.0178    0.8622 C   0  0  0  0  0  0  0  0  0  0  0  0
   -1.7475    0.6378   -0.2354 C   0  0  0  0  0  0  0  0  0  0  0  0
   -0.4254   -0.0710   -0.3879 C   0  0  0  0  0  0  0  0  0  0  0  0
   -0.2976   -1.2602   -0.5917 O   0  0  0  0  0  0  0  0  0  0  0  0
    0.5949    0.7708   -0.2796 O   0  0  0  0  0  0  0  0  0  0  0  0
    1.9308    0.2497   -0.3877 C   0  0  0  0  0  0  0  0  0  0  0  0
    2.4368   -0.2422    0.9597 C   0  0  0  0  0  0  0  0  0  0  0  0
   -3.5697    0.4377    0.9003 H   0  0  0  0  0  0  0  0  0  0  0  0
   -2.6930   -1.0805    0.6592 H   0  0  0  0  0  0  0  0  0  0  0  0
   -2.1056    0.1020    1.8303 H   0  0  0  0  0  0  0  0  0  0  0  0
   -1.5577    1.6874   -0.0162 H   0  0  0  0  0  0  0  0  0  0  0  0
   -2.2734    0.5568   -1.1884 H   0  0  0  0  0  0  0  0  0  0  0  0
    1.9291   -0.5640   -1.1193 H   0  0  0  0  0  0  0  0  0  0  0  0
    2.5241    1.0882   -0.7535 H   0  0  0  0  0  0  0  0  0  0  0  0
    2.3813    0.5563    1.6945 H   0  0  0  0  0  0  0  0  0  0  0  0
    1.8331   -1.0806    1.3002 H   0  0  0  0  0  0  0  0  0  0  0  0
    3.4669   -0.5678    0.8600 H   0  0  0  0  0  0  0  0  0  0  0  0
  1  2  1  0  0  0  0
  2  3  1  0  0  0  0
  3  4  2  0  0  0  0
  3  5  1  0  0  0  0
  5  6  1  0  0  0  0
  6  7  1  0  0  0  0
  1  8  1  0  0  0  0
  1  9  1  0  0  0  0
  1 10  1  0  0  0  0
  2 11  1  0  0  0  0
  2 12  1  0  0  0  0
  6 13  1  0  0  0  0
  6 14  1  0  0  0  0
  7 15  1  0  0  0  0
  7 16  1  0  0  0  0
  7 17  1  0  0  0  0
M  END
