 xtb: 6.7.1 (edcfbbe)
          04112511173D

 35 35  0     0  0            999 V2000
   -0.2460   -2.8232   -0.1705 C   0  0  0  0  0  0  0  0  0  0  0  0
    0.5233   -1.5477   -0.0457 C   0  0  0  0  0  0  0  0  0  0  0  0
    1.8916   -1.4537   -0.3478 C   0  0  0  0  0  0  0  0  0  0  0  0
    2.5618   -0.3226   -0.2298 N   0  0  0  0  0  0  0  0  0  0  0  0
    1.9059    0.7712    0.1903 C   0  0  0  0  0  0  0  0  0  0  0  0
    0.5906    0.7886    0.4823 N   0  0  0  0  0  0  0  0  0  0  0  0
   -0.0550   -0.3509    0.3537 C   0  0  0  0  0  0  0  0  0  0  0  0
   -1.4053   -0.2977    0.6954 O   0  0  0  0  0  0  0  0  0  0  0  0
   -2.2650   -0.0239   -0.3281 C   0  0  0  0  0  0  0  0  0  0  0  0
   -1.8917    0.0498   -1.4900 O   0  0  0  0  0  0  0  0  0  0  0  0
   -3.5246    0.1287    0.0822 N   0  0  0  0  0  0  0  0  0  0  0  0
   -4.5748    0.3724   -0.8840 C   0  0  0  0  0  0  0  0  0  0  0  0
   -3.9453    0.0398    1.4638 C   0  0  0  0  0  0  0  0  0  0  0  0
    2.5962    1.9072    0.3271 N   0  0  0  0  0  0  0  0  0  0  0  0
    1.9763    3.1356    0.7588 C   0  0  0  0  0  0  0  0  0  0  0  0
    4.0060    1.9818    0.0283 C   0  0  0  0  0  0  0  0  0  0  0  0
    2.6586   -2.6429   -0.8227 C   0  0  0  0  0  0  0  0  0  0  0  0
   -1.2335   -2.7117    0.2711 H   0  0  0  0  0  0  0  0  0  0  0  0
   -0.3656   -3.0881   -1.2211 H   0  0  0  0  0  0  0  0  0  0  0  0
    0.2767   -3.6345    0.3317 H   0  0  0  0  0  0  0  0  0  0  0  0
   -5.3169   -0.4243   -0.8293 H   0  0  0  0  0  0  0  0  0  0  0  0
   -4.1333    0.3947   -1.8774 H   0  0  0  0  0  0  0  0  0  0  0  0
   -5.0534    1.3291   -0.6751 H   0  0  0  0  0  0  0  0  0  0  0  0
   -4.5600   -0.8503    1.6070 H   0  0  0  0  0  0  0  0  0  0  0  0
   -4.5327    0.9231    1.7132 H   0  0  0  0  0  0  0  0  0  0  0  0
   -3.0758   -0.0122    2.1112 H   0  0  0  0  0  0  0  0  0  0  0  0
    2.4551    3.4886    1.6736 H   0  0  0  0  0  0  0  0  0  0  0  0
    0.9227    2.9524    0.9437 H   0  0  0  0  0  0  0  0  0  0  0  0
    2.0848    3.8971   -0.0155 H   0  0  0  0  0  0  0  0  0  0  0  0
    4.5525    2.3052    0.9155 H   0  0  0  0  0  0  0  0  0  0  0  0
    4.1762    2.7006   -0.7750 H   0  0  0  0  0  0  0  0  0  0  0  0
    4.3515    1.0003   -0.2795 H   0  0  0  0  0  0  0  0  0  0  0  0
    2.6655   -3.4117   -0.0528 H   0  0  0  0  0  0  0  0  0  0  0  0
    2.1879   -3.0576   -1.7110 H   0  0  0  0  0  0  0  0  0  0  0  0
    3.6777   -2.3483   -1.0494 H   0  0  0  0  0  0  0  0  0  0  0  0
  1  2  1  0  0  0  0
  2  3  4  0  0  0  0
  3  4  4  0  0  0  0
  4  5  4  0  0  0  0
  5  6  4  0  0  0  0
  2  7  4  0  0  0  0
  6  7  4  0  0  0  0
  7  8  1  0  0  0  0
  8  9  1  0  0  0  0
  9 10  2  0  0  0  0
  9 11  4  0  0  0  0
 11 12  1  0  0  0  0
 11 13  1  0  0  0  0
  5 14  4  0  0  0  0
 14 15  1  0  0  0  0
 14 16  1  0  0  0  0
  3 17  1  0  0  0  0
  1 18  1  0  0  0  0
  1 19  1  0  0  0  0
  1 20  1  0  0  0  0
 12 21  1  0  0  0  0
 12 22  1  0  0  0  0
 12 23  1  0  0  0  0
 13 24  1  0  0  0  0
 13 25  1  0  0  0  0
 13 26  1  0  0  0  0
 15 27  1  0  0  0  0
 15 28  1  0  0  0  0
 15 29  1  0  0  0  0
 16 30  1  0  0  0  0
 16 31  1  0  0  0  0
 16 32  1  0  0  0  0
 17 33  1  0  0  0  0
 17 34  1  0  0  0  0
 17 35  1  0  0  0  0
M  END
