 xtb: 6.7.1 (edcfbbe)
          04112511563D

 21 21  0     0  0            999 V2000
   -2.9575    2.2250   -0.0532 C   0  0  0  0  0  0  0  0  0  0  0  0
   -2.6219    0.8454    0.0011 O   0  0  0  0  0  0  0  0  0  0  0  0
   -1.3311    0.4332   -0.0098 C   0  0  0  0  0  0  0  0  0  0  0  0
   -1.1464   -0.9554    0.0270 C   0  0  0  0  0  0  0  0  0  0  0  0
    0.1026   -1.5309    0.0108 C   0  0  0  0  0  0  0  0  0  0  0  0
    1.2327   -0.7258   -0.0361 C   0  0  0  0  0  0  0  0  0  0  0  0
    1.1086    0.6574   -0.0474 C   0  0  0  0  0  0  0  0  0  0  0  0
   -0.1844    1.2315   -0.0432 C   0  0  0  0  0  0  0  0  0  0  0  0
   -0.2765    2.5853   -0.0745 O   0  0  0  0  0  0  0  0  0  0  0  0
    2.0911    1.6059   -0.0905 O   0  0  0  0  0  0  0  0  0  0  0  0
    3.4071    1.3420    0.3738 C   0  0  0  0  0  0  0  0  0  0  0  0
    2.7569   -1.5607   -0.1170 Cl  0  0  0  0  0  0  0  0  0  0  0  0
   -2.5523   -1.9589    0.0812 Cl  0  0  0  0  0  0  0  0  0  0  0  0
   -2.5731    2.7595    0.8154 H   0  0  0  0  0  0  0  0  0  0  0  0
   -4.0453    2.2390   -0.0482 H   0  0  0  0  0  0  0  0  0  0  0  0
   -2.5821    2.6872   -0.9661 H   0  0  0  0  0  0  0  0  0  0  0  0
    0.2031   -2.6027    0.0258 H   0  0  0  0  0  0  0  0  0  0  0  0
    0.6241    2.9574   -0.0832 H   0  0  0  0  0  0  0  0  0  0  0  0
    3.8498    2.3246    0.5256 H   0  0  0  0  0  0  0  0  0  0  0  0
    3.9875    0.7925   -0.3677 H   0  0  0  0  0  0  0  0  0  0  0  0
    3.3928    0.7935    1.3157 H   0  0  0  0  0  0  0  0  0  0  0  0
  1  2  1  0  0  0  0
  2  3  1  0  0  0  0
  3  4  4  0  0  0  0
  4  5  4  0  0  0  0
  5  6  4  0  0  0  0
  6  7  4  0  0  0  0
  3  8  4  0  0  0  0
  7  8  4  0  0  0  0
  8  9  1  0  0  0  0
  7 10  1  0  0  0  0
 10 11  1  0  0  0  0
  6 12  1  0  0  0  0
  4 13  1  0  0  0  0
  1 14  1  0  0  0  0
  1 15  1  0  0  0  0
  1 16  1  0  0  0  0
  5 17  1  0  0  0  0
  9 18  1  0  0  0  0
 11 19  1  0  0  0  0
 11 20  1  0  0  0  0
 11 21  1  0  0  0  0
M  END
