 xtb: 6.7.1 (edcfbbe)
          04112511523D

 13 12  0     0  0            999 V2000
   -1.7802   -0.4519   -0.5635 C   0  0  0  0  0  0  0  0  0  0  0  0
   -1.0668   -0.0594    0.5919 O   0  0  0  0  0  0  0  0  0  0  0  0
   -0.0707    0.9178    0.3742 C   0  0  0  0  0  0  0  0  0  0  0  0
    1.1290    0.4353   -0.4548 C   0  0  0  0  0  0  0  0  0  0  0  0
    1.7076   -0.7510    0.0349 O   0  0  0  0  0  0  0  0  0  0  0  0
   -2.6033   -1.0672   -0.2082 H   0  0  0  0  0  0  0  0  0  0  0  0
   -1.1544   -1.0395   -1.2408 H   0  0  0  0  0  0  0  0  0  0  0  0
   -2.1722    0.4230   -1.0930 H   0  0  0  0  0  0  0  0  0  0  0  0
   -0.5025    1.7997   -0.1205 H   0  0  0  0  0  0  0  0  0  0  0  0
    0.2577    1.1955    1.3788 H   0  0  0  0  0  0  0  0  0  0  0  0
    1.8690    1.2467   -0.4852 H   0  0  0  0  0  0  0  0  0  0  0  0
    0.8237    0.2088   -1.4785 H   0  0  0  0  0  0  0  0  0  0  0  0
    1.9127   -0.6431    0.9743 H   0  0  0  0  0  0  0  0  0  0  0  0
  1  2  1  0  0  0  0
  2  3  1  0  0  0  0
  3  4  1  0  0  0  0
  4  5  1  0  0  0  0
  1  6  1  0  0  0  0
  1  7  1  0  0  0  0
  1  8  1  0  0  0  0
  3  9  1  0  0  0  0
  3 10  1  0  0  0  0
  4 11  1  0  0  0  0
  4 12  1  0  0  0  0
  5 13  1  0  0  0  0
M  END
