 xtb: 6.7.1 (edcfbbe)
          04112511033D

 23 22  0     0  0            999 V2000
    1.8229    1.3258    0.0042 C   0  0  0  0  0  0  0  0  0  0  0  0
    0.9925    0.3321    0.8101 C   0  0  0  0  0  0  0  0  0  0  0  0
   -0.0001   -0.5225    0.0000 C   0  0  0  0  0  0  0  0  0  0  0  0
    0.7574   -1.4240   -0.9823 C   0  0  0  0  0  0  0  0  0  0  0  0
   -0.7586   -1.4231    0.9824 C   0  0  0  0  0  0  0  0  0  0  0  0
   -0.9917    0.3331   -0.8102 C   0  0  0  0  0  0  0  0  0  0  0  0
   -1.8225    1.3263   -0.0041 C   0  0  0  0  0  0  0  0  0  0  0  0
    2.5005    1.8571    0.6693 H   0  0  0  0  0  0  0  0  0  0  0  0
    1.1915    2.0598   -0.4890 H   0  0  0  0  0  0  0  0  0  0  0  0
    2.4202    0.8194   -0.7491 H   0  0  0  0  0  0  0  0  0  0  0  0
    1.6729   -0.3483    1.3288 H   0  0  0  0  0  0  0  0  0  0  0  0
    0.4403    0.8778    1.5777 H   0  0  0  0  0  0  0  0  0  0  0  0
    1.2444   -0.8384   -1.7575 H   0  0  0  0  0  0  0  0  0  0  0  0
    0.0692   -2.1142   -1.4654 H   0  0  0  0  0  0  0  0  0  0  0  0
    1.5147   -2.0054   -0.4610 H   0  0  0  0  0  0  0  0  0  0  0  0
   -1.2445   -0.8368    1.7578 H   0  0  0  0  0  0  0  0  0  0  0  0
   -1.5169   -2.0033    0.4613 H   0  0  0  0  0  0  0  0  0  0  0  0
   -0.0713   -2.1143    1.4652 H   0  0  0  0  0  0  0  0  0  0  0  0
   -0.4385    0.8793   -1.5768 H   0  0  0  0  0  0  0  0  0  0  0  0
   -1.6718   -0.3465   -1.3302 H   0  0  0  0  0  0  0  0  0  0  0  0
   -2.4981    1.8597   -0.6695 H   0  0  0  0  0  0  0  0  0  0  0  0
   -2.4219    0.8192    0.7469 H   0  0  0  0  0  0  0  0  0  0  0  0
   -1.1913    2.0586    0.4917 H   0  0  0  0  0  0  0  0  0  0  0  0
  1  2  1  0  0  0  0
  2  3  1  0  0  0  0
  3  4  1  0  0  0  0
  3  5  1  0  0  0  0
  3  6  1  0  0  0  0
  6  7  1  0  0  0  0
  1  8  1  0  0  0  0
  1  9  1  0  0  0  0
  1 10  1  0  0  0  0
  2 11  1  0  0  0  0
  2 12  1  0  0  0  0
  4 13  1  0  0  0  0
  4 14  1  0  0  0  0
  4 15  1  0  0  0  0
  5 16  1  0  0  0  0
  5 17  1  0  0  0  0
  5 18  1  0  0  0  0
  6 19  1  0  0  0  0
  6 20  1  0  0  0  0
  7 21  1  0  0  0  0
  7 22  1  0  0  0  0
  7 23  1  0  0  0  0
M  END
