 xtb: 6.7.1 (edcfbbe)
          04072505513D

 15 14  0     0  0            999 V2000
    1.8085   -0.9865   -0.0243 C   0  0  0  0  0  0  0  0  0  0  0  0
    1.8037    0.5239   -0.2275 C   0  0  0  0  0  0  0  0  0  0  0  0
    0.5489    1.2139    0.3101 C   0  0  0  0  0  0  0  0  0  0  0  0
   -0.7302    0.8662   -0.4407 C   0  0  0  0  0  0  0  0  0  0  0  0
   -1.4902   -0.6883    0.1957 S   0  0  0  0  0  0  0  0  0  0  0  0
    1.6540   -1.2305    1.0250 H   0  0  0  0  0  0  0  0  0  0  0  0
    2.7616   -1.4052   -0.3386 H   0  0  0  0  0  0  0  0  0  0  0  0
    1.0214   -1.4642   -0.6018 H   0  0  0  0  0  0  0  0  0  0  0  0
    1.9059    0.7472   -1.2921 H   0  0  0  0  0  0  0  0  0  0  0  0
    2.6688    0.9513    0.2845 H   0  0  0  0  0  0  0  0  0  0  0  0
    0.6938    2.2943    0.2349 H   0  0  0  0  0  0  0  0  0  0  0  0
    0.4212    0.9699    1.3678 H   0  0  0  0  0  0  0  0  0  0  0  0
   -1.4772    1.6452   -0.2961 H   0  0  0  0  0  0  0  0  0  0  0  0
   -0.5375    0.7288   -1.5041 H   0  0  0  0  0  0  0  0  0  0  0  0
   -2.5879   -0.6170   -0.5470 H   0  0  0  0  0  0  0  0  0  0  0  0
  1  2  1  0  0  0  0
  2  3  1  0  0  0  0
  3  4  1  0  0  0  0
  4  5  1  0  0  0  0
  1  6  1  0  0  0  0
  1  7  1  0  0  0  0
  1  8  1  0  0  0  0
  2  9  1  0  0  0  0
  2 10  1  0  0  0  0
  3 11  1  0  0  0  0
  3 12  1  0  0  0  0
  4 13  1  0  0  0  0
  4 14  1  0  0  0  0
  5 15  1  0  0  0  0
M  END
