 xtb: 6.7.1 (edcfbbe)
          04112510483D

 27 27  0     0  0            999 V2000
   -2.5834   -1.7458    1.7014 C   0  0  0  0  0  0  0  0  0  0  0  0
   -3.4042   -0.7833    0.8519 C   0  0  0  0  0  0  0  0  0  0  0  0
   -2.7742   -0.3863   -0.4920 C   0  0  0  0  0  0  0  0  0  0  0  0
   -3.3931    0.4202   -0.9044 H   0  0  0  0  0  0  0  0  0  0  0  0
   -2.7454   -1.5132   -1.5159 C   0  0  0  0  0  0  0  0  0  0  0  0
   -1.4572    0.2530   -0.2866 N   0  0  0  0  0  0  0  0  0  0  0  0
   -0.2802   -0.4902   -0.2182 C   0  0  0  0  0  0  0  0  0  0  0  0
   -0.2561   -1.7029   -0.2996 O   0  0  0  0  0  0  0  0  0  0  0  0
    0.9259    0.3016   -0.0413 C   0  0  0  0  0  0  0  0  0  0  0  0
    0.9162    1.6483    0.1007 C   0  0  0  0  0  0  0  0  0  0  0  0
   -0.3050    2.2573    0.0633 N   0  0  0  0  0  0  0  0  0  0  0  0
   -1.5029    1.6195   -0.1147 C   0  0  0  0  0  0  0  0  0  0  0  0
   -2.5410    2.2597   -0.1233 O   0  0  0  0  0  0  0  0  0  0  0  0
    2.0925    2.5304    0.2971 C   0  0  0  0  0  0  0  0  0  0  0  0
    2.5269   -0.7234    0.0029 Br  0  0  0  0  0  0  0  0  0  0  0  0
   -2.3327   -2.6455    1.1469 H   0  0  0  0  0  0  0  0  0  0  0  0
   -1.6545   -1.2854    2.0333 H   0  0  0  0  0  0  0  0  0  0  0  0
   -3.1521   -2.0297    2.5831 H   0  0  0  0  0  0  0  0  0  0  0  0
   -4.3717   -1.2341    0.6288 H   0  0  0  0  0  0  0  0  0  0  0  0
   -3.5859    0.1323    1.4206 H   0  0  0  0  0  0  0  0  0  0  0  0
   -2.2375   -2.3943   -1.1399 H   0  0  0  0  0  0  0  0  0  0  0  0
   -3.7704   -1.7725   -1.7647 H   0  0  0  0  0  0  0  0  0  0  0  0
   -2.2401   -1.1861   -2.4219 H   0  0  0  0  0  0  0  0  0  0  0  0
   -0.3615    3.2643    0.1796 H   0  0  0  0  0  0  0  0  0  0  0  0
    1.9986    3.0667    1.2392 H   0  0  0  0  0  0  0  0  0  0  0  0
    2.1415    3.2628   -0.5060 H   0  0  0  0  0  0  0  0  0  0  0  0
    3.0126    1.9548    0.3081 H   0  0  0  0  0  0  0  0  0  0  0  0
  1  2  1  0  0  0  0
  2  3  1  0  0  0  0
  3  4  1  0  0  0  0
  3  5  1  0  0  0  0
  3  6  1  0  0  0  0
  6  7  1  0  0  0  0
  7  8  2  0  0  0  0
  7  9  1  0  0  0  0
  9 10  2  0  0  0  0
 10 11  1  0  0  0  0
  6 12  1  0  0  0  0
 11 12  1  0  0  0  0
 12 13  2  0  0  0  0
 10 14  1  0  0  0  0
  9 15  1  0  0  0  0
  1 16  1  0  0  0  0
  1 17  1  0  0  0  0
  1 18  1  0  0  0  0
  2 19  1  0  0  0  0
  2 20  1  0  0  0  0
  5 21  1  0  0  0  0
  5 22  1  0  0  0  0
  5 23  1  0  0  0  0
 11 24  1  0  0  0  0
 14 25  1  0  0  0  0
 14 26  1  0  0  0  0
 14 27  1  0  0  0  0
M  END
