 xtb: 6.7.1 (edcfbbe)
          04112512223D

 23 22  0     0  0            999 V2000
   -2.4337    0.9053   -0.2410 C   0  0  0  0  0  0  0  0  0  0  0  0
   -1.1294    0.3022    0.2864 C   0  0  0  0  0  0  0  0  0  0  0  0
   -1.3630   -1.1634    0.6455 C   0  0  0  0  0  0  0  0  0  0  0  0
   -0.0350    0.5083   -0.7704 C   0  0  0  0  0  0  0  0  0  0  0  0
    1.4231    0.1710   -0.4047 C   0  0  0  0  0  0  0  0  0  0  0  0
    1.8119    0.6737    0.9839 C   0  0  0  0  0  0  0  0  0  0  0  0
    1.7622   -1.3119   -0.5543 C   0  0  0  0  0  0  0  0  0  0  0  0
   -2.3062    1.9597   -0.4758 H   0  0  0  0  0  0  0  0  0  0  0  0
   -2.7509    0.3888   -1.1446 H   0  0  0  0  0  0  0  0  0  0  0  0
   -3.2237    0.8143    0.5009 H   0  0  0  0  0  0  0  0  0  0  0  0
   -0.8526    0.8460    1.1947 H   0  0  0  0  0  0  0  0  0  0  0  0
   -0.5367   -1.5679    1.2221 H   0  0  0  0  0  0  0  0  0  0  0  0
   -2.2649   -1.2593    1.2470 H   0  0  0  0  0  0  0  0  0  0  0  0
   -1.4869   -1.7616   -0.2544 H   0  0  0  0  0  0  0  0  0  0  0  0
   -0.0595    1.5669   -1.0443 H   0  0  0  0  0  0  0  0  0  0  0  0
   -0.3049   -0.0597   -1.6644 H   0  0  0  0  0  0  0  0  0  0  0  0
    2.0430    0.7081   -1.1346 H   0  0  0  0  0  0  0  0  0  0  0  0
    1.3030    0.1073    1.7596 H   0  0  0  0  0  0  0  0  0  0  0  0
    2.8837    0.5629    1.1334 H   0  0  0  0  0  0  0  0  0  0  0  0
    1.5578    1.7252    1.0956 H   0  0  0  0  0  0  0  0  0  0  0  0
    2.8358   -1.4565   -0.4502 H   0  0  0  0  0  0  0  0  0  0  0  0
    1.2681   -1.9149    0.2003 H   0  0  0  0  0  0  0  0  0  0  0  0
    1.4640   -1.6750   -1.5350 H   0  0  0  0  0  0  0  0  0  0  0  0
  1  2  1  0  0  0  0
  2  3  1  0  0  0  0
  2  4  1  0  0  0  0
  4  5  1  0  0  0  0
  5  6  1  0  0  0  0
  5  7  1  0  0  0  0
  1  8  1  0  0  0  0
  1  9  1  0  0  0  0
  1 10  1  0  0  0  0
  2 11  1  0  0  0  0
  3 12  1  0  0  0  0
  3 13  1  0  0  0  0
  3 14  1  0  0  0  0
  4 15  1  0  0  0  0
  4 16  1  0  0  0  0
  5 17  1  0  0  0  0
  6 18  1  0  0  0  0
  6 19  1  0  0  0  0
  6 20  1  0  0  0  0
  7 21  1  0  0  0  0
  7 22  1  0  0  0  0
  7 23  1  0  0  0  0
M  END
