 xtb: 6.7.1 (edcfbbe)
          04112511163D

 13 12  0     0  0            999 V2000
   -1.8162    0.5736   -0.3092 C   0  0  0  0  0  0  0  0  0  0  0  0
   -0.9970   -0.1379    0.6100 O   0  0  0  0  0  0  0  0  0  0  0  0
   -0.0000   -0.9029    0.0000 C   0  0  0  0  0  0  0  0  0  0  0  0
    0.9970   -0.1380   -0.6099 O   0  0  0  0  0  0  0  0  0  0  0  0
    1.8162    0.5736    0.3091 C   0  0  0  0  0  0  0  0  0  0  0  0
   -1.2106    1.2264   -0.9425 H   0  0  0  0  0  0  0  0  0  0  0  0
   -2.4993    1.1631    0.2955 H   0  0  0  0  0  0  0  0  0  0  0  0
   -2.3740   -0.1266   -0.9379 H   0  0  0  0  0  0  0  0  0  0  0  0
    0.4156   -1.5287    0.8022 H   0  0  0  0  0  0  0  0  0  0  0  0
   -0.4157   -1.5289   -0.8020 H   0  0  0  0  0  0  0  0  0  0  0  0
    2.3736   -0.1264    0.9385 H   0  0  0  0  0  0  0  0  0  0  0  0
    1.2106    1.2269    0.9418 H   0  0  0  0  0  0  0  0  0  0  0  0
    2.4996    1.1628   -0.2956 H   0  0  0  0  0  0  0  0  0  0  0  0
  1  2  1  0  0  0  0
  2  3  1  0  0  0  0
  3  4  1  0  0  0  0
  4  5  1  0  0  0  0
  1  6  1  0  0  0  0
  1  7  1  0  0  0  0
  1  8  1  0  0  0  0
  3  9  1  0  0  0  0
  3 10  1  0  0  0  0
  5 11  1  0  0  0  0
  5 12  1  0  0  0  0
  5 13  1  0  0  0  0
M  END
