 xtb: 6.7.1 (edcfbbe)
          04112511193D

 14 13  0     0  0            999 V2000
   -1.1142   -0.0777    0.7131 C   0  0  0  0  0  0  0  0  0  0  0  0
    0.2291    0.5895    0.3664 C   0  0  0  0  0  0  0  0  0  0  0  0
    1.1380   -0.3454   -0.4502 C   0  0  0  0  0  0  0  0  0  0  0  0
    1.6474   -1.4143    0.3078 O   0  0  0  0  0  0  0  0  0  0  0  0
    0.0130    1.7406   -0.4269 O   0  0  0  0  0  0  0  0  0  0  0  0
   -1.8140   -0.4931   -0.4359 O   0  0  0  0  0  0  0  0  0  0  0  0
   -1.7270    0.6236    1.2970 H   0  0  0  0  0  0  0  0  0  0  0  0
   -0.9460   -0.9702    1.3174 H   0  0  0  0  0  0  0  0  0  0  0  0
    0.7488    0.8431    1.3000 H   0  0  0  0  0  0  0  0  0  0  0  0
    2.0000    0.2326   -0.7908 H   0  0  0  0  0  0  0  0  0  0  0  0
    0.5889   -0.7022   -1.3279 H   0  0  0  0  0  0  0  0  0  0  0  0
    0.9530   -2.0744    0.4377 H   0  0  0  0  0  0  0  0  0  0  0  0
   -0.3349    2.4558    0.1239 H   0  0  0  0  0  0  0  0  0  0  0  0
   -1.8564    0.2575   -1.0480 H   0  0  0  0  0  0  0  0  0  0  0  0
  1  2  1  0  0  0  0
  2  3  1  0  0  0  0
  3  4  1  0  0  0  0
  2  5  1  0  0  0  0
  1  6  1  0  0  0  0
  1  7  1  0  0  0  0
  1  8  1  0  0  0  0
  2  9  1  0  0  0  0
  3 10  1  0  0  0  0
  3 11  1  0  0  0  0
  4 12  1  0  0  0  0
  5 13  1  0  0  0  0
  6 14  1  0  0  0  0
M  END
