 xtb: 6.7.1 (edcfbbe)
          04112511193D

 14 13  0     0  0            999 V2000
   -1.1031   -0.4597   -0.3135 C   0  0  0  0  0  0  0  0  0  0  0  0
   -0.0008    0.1850    0.5430 C   0  0  0  0  0  0  0  0  0  0  0  0
    1.2787   -0.6754    0.5651 C   0  0  0  0  0  0  0  0  0  0  0  0
    1.9741   -0.6954   -0.6568 O   0  0  0  0  0  0  0  0  0  0  0  0
    0.2394    1.4768    0.0309 O   0  0  0  0  0  0  0  0  0  0  0  0
   -2.3741    0.1034   -0.1084 O   0  0  0  0  0  0  0  0  0  0  0  0
   -1.1300   -1.5396   -0.1138 H   0  0  0  0  0  0  0  0  0  0  0  0
   -0.8842   -0.2846   -1.3686 H   0  0  0  0  0  0  0  0  0  0  0  0
   -0.3645    0.2572    1.5828 H   0  0  0  0  0  0  0  0  0  0  0  0
    1.0190   -1.6917    0.8886 H   0  0  0  0  0  0  0  0  0  0  0  0
    1.9849   -0.2544    1.2855 H   0  0  0  0  0  0  0  0  0  0  0  0
    1.4182   -1.0798   -1.3469 H   0  0  0  0  0  0  0  0  0  0  0  0
    1.0384    1.8448    0.4330 H   0  0  0  0  0  0  0  0  0  0  0  0
   -2.6156    0.0261    0.8255 H   0  0  0  0  0  0  0  0  0  0  0  0
  1  2  1  0  0  0  0
  2  3  1  0  0  0  0
  3  4  1  0  0  0  0
  2  5  1  0  0  0  0
  1  6  1  0  0  0  0
  1  7  1  0  0  0  0
  1  8  1  0  0  0  0
  2  9  1  0  0  0  0
  3 10  1  0  0  0  0
  3 11  1  0  0  0  0
  4 12  1  0  0  0  0
  5 13  1  0  0  0  0
  6 14  1  0  0  0  0
M  END
