 xtb: 6.7.1 (edcfbbe)
          04112512223D

 23 22  0     0  0            999 V2000
   -2.1273    1.1649    0.1701 C   0  0  0  0  0  0  0  0  0  0  0  0
   -1.0850    0.0473    0.2084 C   0  0  0  0  0  0  0  0  0  0  0  0
   -1.7742   -1.3019    0.0069 C   0  0  0  0  0  0  0  0  0  0  0  0
    0.0049    0.2861   -0.8532 C   0  0  0  0  0  0  0  0  0  0  0  0
    1.4542    0.0713   -0.3891 C   0  0  0  0  0  0  0  0  0  0  0  0
    1.8735    1.1060    0.6543 C   0  0  0  0  0  0  0  0  0  0  0  0
    1.7010   -1.3435    0.1292 C   0  0  0  0  0  0  0  0  0  0  0  0
   -1.6659    2.1281    0.3757 H   0  0  0  0  0  0  0  0  0  0  0  0
   -2.5990    1.2093   -0.8095 H   0  0  0  0  0  0  0  0  0  0  0  0
   -2.9014    0.9908    0.9146 H   0  0  0  0  0  0  0  0  0  0  0  0
   -0.6287    0.0518    1.2024 H   0  0  0  0  0  0  0  0  0  0  0  0
   -2.2899   -1.3217   -0.9513 H   0  0  0  0  0  0  0  0  0  0  0  0
   -1.0544   -2.1152    0.0267 H   0  0  0  0  0  0  0  0  0  0  0  0
   -2.5078   -1.4749    0.7919 H   0  0  0  0  0  0  0  0  0  0  0  0
   -0.0705    1.3140   -1.2152 H   0  0  0  0  0  0  0  0  0  0  0  0
   -0.1843   -0.3675   -1.7076 H   0  0  0  0  0  0  0  0  0  0  0  0
    2.0886    0.2179   -1.2725 H   0  0  0  0  0  0  0  0  0  0  0  0
    1.3003    0.9936    1.5711 H   0  0  0  0  0  0  0  0  0  0  0  0
    2.9268    0.9882    0.8985 H   0  0  0  0  0  0  0  0  0  0  0  0
    1.7198    2.1139    0.2754 H   0  0  0  0  0  0  0  0  0  0  0  0
    1.4168   -2.0796   -0.6192 H   0  0  0  0  0  0  0  0  0  0  0  0
    2.7559   -1.4796    0.3578 H   0  0  0  0  0  0  0  0  0  0  0  0
    1.1320   -1.5300    1.0363 H   0  0  0  0  0  0  0  0  0  0  0  0
  1  2  1  0  0  0  0
  2  3  1  0  0  0  0
  2  4  1  0  0  0  0
  4  5  1  0  0  0  0
  5  6  1  0  0  0  0
  5  7  1  0  0  0  0
  1  8  1  0  0  0  0
  1  9  1  0  0  0  0
  1 10  1  0  0  0  0
  2 11  1  0  0  0  0
  3 12  1  0  0  0  0
  3 13  1  0  0  0  0
  3 14  1  0  0  0  0
  4 15  1  0  0  0  0
  4 16  1  0  0  0  0
  5 17  1  0  0  0  0
  6 18  1  0  0  0  0
  6 19  1  0  0  0  0
  6 20  1  0  0  0  0
  7 21  1  0  0  0  0
  7 22  1  0  0  0  0
  7 23  1  0  0  0  0
M  END
