 xtb: 6.7.1 (edcfbbe)
          04112512213D

 14 13  0     0  0            999 V2000
   -2.7627    0.2756    0.0036 C   0  0  0  0  0  0  0  0  0  0  0  0
   -1.3462   -0.0133    0.4845 C   0  0  0  0  0  0  0  0  0  0  0  0
   -0.3322    0.1304   -0.6628 C   0  0  0  0  0  0  0  0  0  0  0  0
    1.0526   -0.1476   -0.1386 C   0  0  0  0  0  0  0  0  0  0  0  0
    1.5758   -1.2385   -0.1806 O   0  0  0  0  0  0  0  0  0  0  0  0
    1.6911    0.8705    0.4344 O   0  0  0  0  0  0  0  0  0  0  0  0
   -2.8389    1.2908   -0.3772 H   0  0  0  0  0  0  0  0  0  0  0  0
   -3.4660    0.1612    0.8238 H   0  0  0  0  0  0  0  0  0  0  0  0
   -3.0441   -0.4125   -0.7892 H   0  0  0  0  0  0  0  0  0  0  0  0
   -1.0897    0.6710    1.2953 H   0  0  0  0  0  0  0  0  0  0  0  0
   -1.2878   -1.0299    0.8782 H   0  0  0  0  0  0  0  0  0  0  0  0
   -0.5594   -0.6033   -1.4362 H   0  0  0  0  0  0  0  0  0  0  0  0
   -0.3924    1.1324   -1.0884 H   0  0  0  0  0  0  0  0  0  0  0  0
    1.2010    1.7123    0.3978 H   0  0  0  0  0  0  0  0  0  0  0  0
  1  2  1  0  0  0  0
  2  3  1  0  0  0  0
  3  4  1  0  0  0  0
  4  5  2  0  0  0  0
  4  6  1  0  0  0  0
  1  7  1  0  0  0  0
  1  8  1  0  0  0  0
  1  9  1  0  0  0  0
  2 10  1  0  0  0  0
  2 11  1  0  0  0  0
  3 12  1  0  0  0  0
  3 13  1  0  0  0  0
  6 14  1  0  0  0  0
M  END
