 xtb: 6.7.1 (edcfbbe)
          04112512083D

 17 16  0     0  0            999 V2000
   -2.4995    0.5088    0.8795 C   0  0  0  0  0  0  0  0  0  0  0  0
   -1.8756   -0.4990   -0.0785 C   0  0  0  0  0  0  0  0  0  0  0  0
   -0.8529    0.1539   -1.0051 C   0  0  0  0  0  0  0  0  0  0  0  0
    0.2625    0.6784   -0.2711 O   0  0  0  0  0  0  0  0  0  0  0  0
    1.2748   -0.1359    0.0069 C   0  0  0  0  0  0  0  0  0  0  0  0
    1.3154   -1.2986   -0.3395 O   0  0  0  0  0  0  0  0  0  0  0  0
    2.3498    0.5699    0.7781 C   0  0  0  0  0  0  0  0  0  0  0  0
   -3.1887    0.0097    1.5548 H   0  0  0  0  0  0  0  0  0  0  0  0
   -1.7282    0.9981    1.4694 H   0  0  0  0  0  0  0  0  0  0  0  0
   -3.0438    1.2696    0.3260 H   0  0  0  0  0  0  0  0  0  0  0  0
   -2.6475   -0.9550   -0.6986 H   0  0  0  0  0  0  0  0  0  0  0  0
   -1.3785   -1.2944    0.4815 H   0  0  0  0  0  0  0  0  0  0  0  0
   -0.4807   -0.5740   -1.7328 H   0  0  0  0  0  0  0  0  0  0  0  0
   -1.2806    1.0178   -1.5151 H   0  0  0  0  0  0  0  0  0  0  0  0
    1.9279    0.9793    1.6917 H   0  0  0  0  0  0  0  0  0  0  0  0
    2.7295    1.3959    0.1826 H   0  0  0  0  0  0  0  0  0  0  0  0
    3.1495   -0.1258    1.0089 H   0  0  0  0  0  0  0  0  0  0  0  0
  1  2  1  0  0  0  0
  2  3  1  0  0  0  0
  3  4  1  0  0  0  0
  4  5  1  0  0  0  0
  5  6  2  0  0  0  0
  5  7  1  0  0  0  0
  1  8  1  0  0  0  0
  1  9  1  0  0  0  0
  1 10  1  0  0  0  0
  2 11  1  0  0  0  0
  2 12  1  0  0  0  0
  3 13  1  0  0  0  0
  3 14  1  0  0  0  0
  7 15  1  0  0  0  0
  7 16  1  0  0  0  0
  7 17  1  0  0  0  0
M  END
