 xtb: 6.7.1 (edcfbbe)
          04112511563D

 21 21  0     0  0            999 V2000
   -3.8279    0.1738   -0.1506 C   0  0  0  0  0  0  0  0  0  0  0  0
   -2.3654    0.5830   -0.2875 C   0  0  0  0  0  0  0  0  0  0  0  0
   -1.4366   -0.5805    0.0506 C   0  0  0  0  0  0  0  0  0  0  0  0
    0.0367   -0.2654    0.0532 C   0  0  0  0  0  0  0  0  0  0  0  0
    0.9144   -1.2053    0.5882 C   0  0  0  0  0  0  0  0  0  0  0  0
    2.2779   -0.9819    0.6070 C   0  0  0  0  0  0  0  0  0  0  0  0
    2.7947    0.1948    0.0897 C   0  0  0  0  0  0  0  0  0  0  0  0
    1.9344    1.1368   -0.4440 C   0  0  0  0  0  0  0  0  0  0  0  0
    0.5677    0.9086   -0.4635 C   0  0  0  0  0  0  0  0  0  0  0  0
   -4.0550   -0.6576   -0.8143 H   0  0  0  0  0  0  0  0  0  0  0  0
   -4.0452   -0.1334    0.8701 H   0  0  0  0  0  0  0  0  0  0  0  0
   -4.4816    1.0045   -0.4050 H   0  0  0  0  0  0  0  0  0  0  0  0
   -2.1599    1.4197    0.3836 H   0  0  0  0  0  0  0  0  0  0  0  0
   -2.1847    0.9146   -1.3118 H   0  0  0  0  0  0  0  0  0  0  0  0
   -1.6103   -1.3906   -0.6653 H   0  0  0  0  0  0  0  0  0  0  0  0
   -1.7037   -0.9687    1.0377 H   0  0  0  0  0  0  0  0  0  0  0  0
    0.5177   -2.1250    0.9951 H   0  0  0  0  0  0  0  0  0  0  0  0
    2.9395   -1.7250    1.0275 H   0  0  0  0  0  0  0  0  0  0  0  0
    3.8593    0.3746    0.1039 H   0  0  0  0  0  0  0  0  0  0  0  0
    2.3269    2.0577   -0.8501 H   0  0  0  0  0  0  0  0  0  0  0  0
   -0.0801    1.6595   -0.8872 H   0  0  0  0  0  0  0  0  0  0  0  0
  1  2  1  0  0  0  0
  2  3  1  0  0  0  0
  3  4  1  0  0  0  0
  4  5  4  0  0  0  0
  5  6  4  0  0  0  0
  6  7  4  0  0  0  0
  7  8  4  0  0  0  0
  4  9  4  0  0  0  0
  8  9  4  0  0  0  0
  1 10  1  0  0  0  0
  1 11  1  0  0  0  0
  1 12  1  0  0  0  0
  2 13  1  0  0  0  0
  2 14  1  0  0  0  0
  3 15  1  0  0  0  0
  3 16  1  0  0  0  0
  5 17  1  0  0  0  0
  6 18  1  0  0  0  0
  7 19  1  0  0  0  0
  8 20  1  0  0  0  0
  9 21  1  0  0  0  0
M  END
