 xtb: 6.7.1 (edcfbbe)
          04112511493D

 21 20  0     0  0            999 V2000
    1.7819    0.5403   -1.1173 C   0  0  0  0  0  0  0  0  0  0  0  0
    1.0711   -0.1722    0.0325 C   0  0  0  0  0  0  0  0  0  0  0  0
    0.7017   -1.1421   -0.3135 H   0  0  0  0  0  0  0  0  0  0  0  0
   -0.0909    0.6622    0.6071 C   0  0  0  0  0  0  0  0  0  0  0  0
   -1.5003    0.2796    0.1293 C   0  0  0  0  0  0  0  0  0  0  0  0
   -1.6504    0.3659   -1.3878 C   0  0  0  0  0  0  0  0  0  0  0  0
   -1.9151   -1.1025    0.6313 C   0  0  0  0  0  0  0  0  0  0  0  0
    2.0004   -0.5173    1.0515 O   0  0  0  0  0  0  0  0  0  0  0  0
    2.6109   -0.0687   -1.4713 H   0  0  0  0  0  0  0  0  0  0  0  0
    1.0966    0.7128   -1.9400 H   0  0  0  0  0  0  0  0  0  0  0  0
    2.1727    1.4992   -0.7814 H   0  0  0  0  0  0  0  0  0  0  0  0
   -0.0695    0.5469    1.6939 H   0  0  0  0  0  0  0  0  0  0  0  0
    0.0817    1.7169    0.3805 H   0  0  0  0  0  0  0  0  0  0  0  0
   -2.1841    1.0122    0.5753 H   0  0  0  0  0  0  0  0  0  0  0  0
   -1.0426   -0.3888   -1.8801 H   0  0  0  0  0  0  0  0  0  0  0  0
   -1.3527    1.3478   -1.7475 H   0  0  0  0  0  0  0  0  0  0  0  0
   -2.6880    0.2000   -1.6685 H   0  0  0  0  0  0  0  0  0  0  0  0
   -2.9465   -1.3079    0.3546 H   0  0  0  0  0  0  0  0  0  0  0  0
   -1.2884   -1.8804    0.2026 H   0  0  0  0  0  0  0  0  0  0  0  0
   -1.8315   -1.1571    1.7141 H   0  0  0  0  0  0  0  0  0  0  0  0
    2.4381    0.2895    1.3570 H   0  0  0  0  0  0  0  0  0  0  0  0
  1  2  1  0  0  0  0
  2  3  1  0  0  0  0
  2  4  1  0  0  0  0
  4  5  1  0  0  0  0
  5  6  1  0  0  0  0
  5  7  1  0  0  0  0
  2  8  1  0  0  0  0
  1  9  1  0  0  0  0
  1 10  1  0  0  0  0
  1 11  1  0  0  0  0
  4 12  1  0  0  0  0
  4 13  1  0  0  0  0
  5 14  1  0  0  0  0
  6 15  1  0  0  0  0
  6 16  1  0  0  0  0
  6 17  1  0  0  0  0
  7 18  1  0  0  0  0
  7 19  1  0  0  0  0
  7 20  1  0  0  0  0
  8 21  1  0  0  0  0
M  END
