 xtb: 6.7.1 (edcfbbe)
          04112512193D

 17 16  0     0  0            999 V2000
   -2.2535    0.3072    1.1435 C   0  0  0  0  0  0  0  0  0  0  0  0
   -1.8300    0.5141   -0.3136 C   0  0  0  0  0  0  0  0  0  0  0  0
   -0.5286   -0.2029   -0.5654 C   0  0  0  0  0  0  0  0  0  0  0  0
   -0.4283   -1.2871   -1.1039 O   0  0  0  0  0  0  0  0  0  0  0  0
    0.5016    0.4844   -0.0975 O   0  0  0  0  0  0  0  0  0  0  0  0
    1.8213   -0.0787   -0.1925 C   0  0  0  0  0  0  0  0  0  0  0  0
    2.6043    0.2957    1.0531 C   0  0  0  0  0  0  0  0  0  0  0  0
   -3.2014    0.8053    1.3230 H   0  0  0  0  0  0  0  0  0  0  0  0
   -2.3699   -0.7529    1.3562 H   0  0  0  0  0  0  0  0  0  0  0  0
   -1.5053    0.7203    1.8145 H   0  0  0  0  0  0  0  0  0  0  0  0
   -1.6878    1.5764   -0.5078 H   0  0  0  0  0  0  0  0  0  0  0  0
   -2.5827    0.1065   -0.9873 H   0  0  0  0  0  0  0  0  0  0  0  0
    1.7292   -1.1632   -0.3079 H   0  0  0  0  0  0  0  0  0  0  0  0
    2.2885    0.3348   -1.0912 H   0  0  0  0  0  0  0  0  0  0  0  0
    3.6166   -0.0850    0.9671 H   0  0  0  0  0  0  0  0  0  0  0  0
    2.6347    1.3760    1.1596 H   0  0  0  0  0  0  0  0  0  0  0  0
    2.1372   -0.1315    1.9360 H   0  0  0  0  0  0  0  0  0  0  0  0
  1  2  1  0  0  0  0
  2  3  1  0  0  0  0
  3  4  2  0  0  0  0
  3  5  1  0  0  0  0
  5  6  1  0  0  0  0
  6  7  1  0  0  0  0
  1  8  1  0  0  0  0
  1  9  1  0  0  0  0
  1 10  1  0  0  0  0
  2 11  1  0  0  0  0
  2 12  1  0  0  0  0
  6 13  1  0  0  0  0
  6 14  1  0  0  0  0
  7 15  1  0  0  0  0
  7 16  1  0  0  0  0
  7 17  1  0  0  0  0
M  END
