 xtb: 6.7.1 (edcfbbe)
          04112512233D

 20 19  0     0  0            999 V2000
   -2.7808    0.8803    0.0760 C   0  0  0  0  0  0  0  0  0  0  0  0
   -1.5334    0.0303    0.2992 C   0  0  0  0  0  0  0  0  0  0  0  0
   -1.8939   -1.4474    0.4310 C   0  0  0  0  0  0  0  0  0  0  0  0
   -0.5548    0.2393   -0.8608 C   0  0  0  0  0  0  0  0  0  0  0  0
    0.6799   -0.4531   -0.6407 O   0  0  0  0  0  0  0  0  0  0  0  0
    1.6411    0.1659    0.0353 C   0  0  0  0  0  0  0  0  0  0  0  0
    1.5428    1.3015    0.4542 O   0  0  0  0  0  0  0  0  0  0  0  0
    2.8452   -0.7105    0.2087 C   0  0  0  0  0  0  0  0  0  0  0  0
   -3.4782    0.7391    0.8968 H   0  0  0  0  0  0  0  0  0  0  0  0
   -3.2723    0.5930   -0.8501 H   0  0  0  0  0  0  0  0  0  0  0  0
   -2.5222    1.9347    0.0201 H   0  0  0  0  0  0  0  0  0  0  0  0
   -1.0338    0.3630    1.2166 H   0  0  0  0  0  0  0  0  0  0  0  0
   -0.9951   -2.0508    0.5306 H   0  0  0  0  0  0  0  0  0  0  0  0
   -2.4379   -1.7799   -0.4498 H   0  0  0  0  0  0  0  0  0  0  0  0
   -2.5185   -1.6062    1.3058 H   0  0  0  0  0  0  0  0  0  0  0  0
   -0.9534   -0.1791   -1.7860 H   0  0  0  0  0  0  0  0  0  0  0  0
   -0.3406    1.3053   -0.9875 H   0  0  0  0  0  0  0  0  0  0  0  0
    3.7459   -0.1198    0.0714 H   0  0  0  0  0  0  0  0  0  0  0  0
    2.8061   -1.5368   -0.4926 H   0  0  0  0  0  0  0  0  0  0  0  0
    2.8461   -1.0967    1.2258 H   0  0  0  0  0  0  0  0  0  0  0  0
  1  2  1  0  0  0  0
  2  3  1  0  0  0  0
  2  4  1  0  0  0  0
  4  5  1  0  0  0  0
  5  6  1  0  0  0  0
  6  7  2  0  0  0  0
  6  8  1  0  0  0  0
  1  9  1  0  0  0  0
  1 10  1  0  0  0  0
  1 11  1  0  0  0  0
  2 12  1  0  0  0  0
  3 13  1  0  0  0  0
  3 14  1  0  0  0  0
  3 15  1  0  0  0  0
  4 16  1  0  0  0  0
  4 17  1  0  0  0  0
  8 18  1  0  0  0  0
  8 19  1  0  0  0  0
  8 20  1  0  0  0  0
M  END
