 xtb: 6.7.1 (edcfbbe)
          04112511493D

 21 20  0     0  0            999 V2000
    1.8852    1.1033    0.1267 C   0  0  0  0  0  0  0  0  0  0  0  0
    1.3794   -0.2381   -0.3962 C   0  0  0  0  0  0  0  0  0  0  0  0
    2.0218   -0.5396   -1.2425 H   0  0  0  0  0  0  0  0  0  0  0  0
   -0.0618   -0.1737   -0.9348 C   0  0  0  0  0  0  0  0  0  0  0  0
   -1.1169    0.4497   -0.0125 C   0  0  0  0  0  0  0  0  0  0  0  0
   -2.4260    0.6225   -0.7835 C   0  0  0  0  0  0  0  0  0  0  0  0
   -1.3552   -0.3957    1.2363 C   0  0  0  0  0  0  0  0  0  0  0  0
    1.5462   -1.1847    0.6480 O   0  0  0  0  0  0  0  0  0  0  0  0
    1.3701    1.3618    1.0469 H   0  0  0  0  0  0  0  0  0  0  0  0
    2.9473    1.0291    0.3437 H   0  0  0  0  0  0  0  0  0  0  0  0
    1.7235    1.8796   -0.6145 H   0  0  0  0  0  0  0  0  0  0  0  0
   -0.0278    0.4045   -1.8607 H   0  0  0  0  0  0  0  0  0  0  0  0
   -0.3794   -1.1879   -1.1934 H   0  0  0  0  0  0  0  0  0  0  0  0
   -0.7724    1.4411    0.2955 H   0  0  0  0  0  0  0  0  0  0  0  0
   -3.1838    1.0703   -0.1452 H   0  0  0  0  0  0  0  0  0  0  0  0
   -2.7948   -0.3415   -1.1279 H   0  0  0  0  0  0  0  0  0  0  0  0
   -2.2831    1.2651   -1.6491 H   0  0  0  0  0  0  0  0  0  0  0  0
   -1.7540   -1.3704    0.9619 H   0  0  0  0  0  0  0  0  0  0  0  0
   -0.4287   -0.5425    1.7842 H   0  0  0  0  0  0  0  0  0  0  0  0
   -2.0718    0.0936    1.8922 H   0  0  0  0  0  0  0  0  0  0  0  0
    1.2923   -2.0596    0.3266 H   0  0  0  0  0  0  0  0  0  0  0  0
  1  2  1  0  0  0  0
  2  3  1  0  0  0  0
  2  4  1  0  0  0  0
  4  5  1  0  0  0  0
  5  6  1  0  0  0  0
  5  7  1  0  0  0  0
  2  8  1  0  0  0  0
  1  9  1  0  0  0  0
  1 10  1  0  0  0  0
  1 11  1  0  0  0  0
  4 12  1  0  0  0  0
  4 13  1  0  0  0  0
  5 14  1  0  0  0  0
  6 15  1  0  0  0  0
  6 16  1  0  0  0  0
  6 17  1  0  0  0  0
  7 18  1  0  0  0  0
  7 19  1  0  0  0  0
  7 20  1  0  0  0  0
  8 21  1  0  0  0  0
M  END
