 xtb: 6.7.1 (edcfbbe)
          04112511193D

 14 13  0     0  0            999 V2000
   -1.0760   -0.5696   -0.1632 C   0  0  0  0  0  0  0  0  0  0  0  0
    0.0086    0.2190    0.5876 C   0  0  0  0  0  0  0  0  0  0  0  0
    1.3172   -0.5746    0.6533 C   0  0  0  0  0  0  0  0  0  0  0  0
    1.7735   -0.7628   -0.6709 O   0  0  0  0  0  0  0  0  0  0  0  0
    0.2080    1.4723   -0.0302 O   0  0  0  0  0  0  0  0  0  0  0  0
   -2.2991    0.1280   -0.1852 O   0  0  0  0  0  0  0  0  0  0  0  0
   -1.2691   -1.5188    0.3390 H   0  0  0  0  0  0  0  0  0  0  0  0
   -0.7296   -0.7689   -1.1866 H   0  0  0  0  0  0  0  0  0  0  0  0
   -0.3418    0.4384    1.6013 H   0  0  0  0  0  0  0  0  0  0  0  0
    1.1325   -1.5340    1.1488 H   0  0  0  0  0  0  0  0  0  0  0  0
    2.0494   -0.0004    1.2343 H   0  0  0  0  0  0  0  0  0  0  0  0
    2.6029   -1.2577   -0.6596 H   0  0  0  0  0  0  0  0  0  0  0  0
    0.7295    1.3212   -0.8344 H   0  0  0  0  0  0  0  0  0  0  0  0
   -2.1086    1.0505   -0.4169 H   0  0  0  0  0  0  0  0  0  0  0  0
  1  2  1  0  0  0  0
  2  3  1  0  0  0  0
  3  4  1  0  0  0  0
  2  5  1  0  0  0  0
  1  6  1  0  0  0  0
  1  7  1  0  0  0  0
  1  8  1  0  0  0  0
  2  9  1  0  0  0  0
  3 10  1  0  0  0  0
  3 11  1  0  0  0  0
  4 12  1  0  0  0  0
  5 13  1  0  0  0  0
  6 14  1  0  0  0  0
M  END
