 xtb: 6.7.1 (edcfbbe)
          04112511393D

 22 22  0     0  0            999 V2000
   -4.1562   -0.6812    1.4333 C   0  0  0  0  0  0  0  0  0  0  0  0
   -3.4737   -0.1402    0.1920 C   0  0  0  0  0  0  0  0  0  0  0  0
   -2.0551   -0.1942    0.3998 O   0  0  0  0  0  0  0  0  0  0  0  0
   -1.2780    0.2173   -0.6013 C   0  0  0  0  0  0  0  0  0  0  0  0
   -1.7358    0.6265   -1.6574 O   0  0  0  0  0  0  0  0  0  0  0  0
    0.1577    0.1263   -0.3019 C   0  0  0  0  0  0  0  0  0  0  0  0
    1.0734    0.5250   -1.2760 C   0  0  0  0  0  0  0  0  0  0  0  0
    2.4280    0.4554   -1.0357 C   0  0  0  0  0  0  0  0  0  0  0  0
    2.8943   -0.0171    0.1915 C   0  0  0  0  0  0  0  0  0  0  0  0
    1.9791   -0.4169    1.1693 C   0  0  0  0  0  0  0  0  0  0  0  0
    0.6270   -0.3463    0.9259 C   0  0  0  0  0  0  0  0  0  0  0  0
    4.2057   -0.1071    0.4818 O   0  0  0  0  0  0  0  0  0  0  0  0
   -3.8492   -1.7080    1.6087 H   0  0  0  0  0  0  0  0  0  0  0  0
   -3.8862   -0.0812    2.2973 H   0  0  0  0  0  0  0  0  0  0  0  0
   -5.2317   -0.6470    1.2945 H   0  0  0  0  0  0  0  0  0  0  0  0
   -3.7552    0.8997   -0.0068 H   0  0  0  0  0  0  0  0  0  0  0  0
   -3.7166   -0.7318   -0.6974 H   0  0  0  0  0  0  0  0  0  0  0  0
    0.6946    0.8879   -2.2195 H   0  0  0  0  0  0  0  0  0  0  0  0
    3.1265    0.7667   -1.7976 H   0  0  0  0  0  0  0  0  0  0  0  0
    2.3598   -0.7787    2.1107 H   0  0  0  0  0  0  0  0  0  0  0  0
   -0.0796   -0.6543    1.6791 H   0  0  0  0  0  0  0  0  0  0  0  0
    4.7553    0.1925   -0.2601 H   0  0  0  0  0  0  0  0  0  0  0  0
  1  2  1  0  0  0  0
  2  3  1  0  0  0  0
  3  4  1  0  0  0  0
  4  5  2  0  0  0  0
  4  6  1  0  0  0  0
  6  7  4  0  0  0  0
  7  8  4  0  0  0  0
  8  9  4  0  0  0  0
  9 10  4  0  0  0  0
  6 11  4  0  0  0  0
 10 11  4  0  0  0  0
  9 12  1  0  0  0  0
  1 13  1  0  0  0  0
  1 14  1  0  0  0  0
  1 15  1  0  0  0  0
  2 16  1  0  0  0  0
  2 17  1  0  0  0  0
  7 18  1  0  0  0  0
  8 19  1  0  0  0  0
 10 20  1  0  0  0  0
 11 21  1  0  0  0  0
 12 22  1  0  0  0  0
M  END
