 xtb: 6.7.1 (edcfbbe)
          04112511063D

 14 13  0     0  0            999 V2000
   -3.4477   -0.5978   -0.1516 C   0  0  0  0  0  0  0  0  0  0  0  0
   -2.0687   -0.2842    0.4149 C   0  0  0  0  0  0  0  0  0  0  0  0
   -1.4033    0.8677   -0.3351 C   0  0  0  0  0  0  0  0  0  0  0  0
   -0.0448    1.2328    0.2277 C   0  0  0  0  0  0  0  0  0  0  0  0
    1.2741   -0.2165   -0.0273 Br  0  0  0  0  0  0  0  0  0  0  0  0
   -4.0997    0.2690   -0.0718 H   0  0  0  0  0  0  0  0  0  0  0  0
   -3.3745   -0.8780   -1.1998 H   0  0  0  0  0  0  0  0  0  0  0  0
   -3.9016   -1.4215    0.3927 H   0  0  0  0  0  0  0  0  0  0  0  0
   -1.4384   -1.1738    0.3442 H   0  0  0  0  0  0  0  0  0  0  0  0
   -2.1595   -0.0232    1.4720 H   0  0  0  0  0  0  0  0  0  0  0  0
   -1.3073    0.6091   -1.3920 H   0  0  0  0  0  0  0  0  0  0  0  0
   -2.0324    1.7587   -0.2637 H   0  0  0  0  0  0  0  0  0  0  0  0
   -0.0816    1.4011    1.3025 H   0  0  0  0  0  0  0  0  0  0  0  0
    0.3850    2.0976   -0.2741 H   0  0  0  0  0  0  0  0  0  0  0  0
  1  2  1  0  0  0  0
  2  3  1  0  0  0  0
  3  4  1  0  0  0  0
  4  5  1  0  0  0  0
  1  6  1  0  0  0  0
  1  7  1  0  0  0  0
  1  8  1  0  0  0  0
  2  9  1  0  0  0  0
  2 10  1  0  0  0  0
  3 11  1  0  0  0  0
  3 12  1  0  0  0  0
  4 13  1  0  0  0  0
  4 14  1  0  0  0  0
M  END
