 xtb: 6.7.1 (edcfbbe)
          04112511493D

 21 20  0     0  0            999 V2000
    2.3642    0.5836   -0.7420 C   0  0  0  0  0  0  0  0  0  0  0  0
    1.0691   -0.1149   -0.3210 C   0  0  0  0  0  0  0  0  0  0  0  0
    0.6726   -0.6705   -1.1847 H   0  0  0  0  0  0  0  0  0  0  0  0
    0.0371    0.9176    0.1488 C   0  0  0  0  0  0  0  0  0  0  0  0
   -1.4288    0.4587    0.1815 C   0  0  0  0  0  0  0  0  0  0  0  0
   -1.9505    0.0931   -1.2077 C   0  0  0  0  0  0  0  0  0  0  0  0
   -1.6520   -0.6923    1.1582 C   0  0  0  0  0  0  0  0  0  0  0  0
    1.3104   -1.0221    0.7440 O   0  0  0  0  0  0  0  0  0  0  0  0
    2.1735    1.2588   -1.5708 H   0  0  0  0  0  0  0  0  0  0  0  0
    2.7649    1.1523    0.0939 H   0  0  0  0  0  0  0  0  0  0  0  0
    3.1074   -0.1463   -1.0565 H   0  0  0  0  0  0  0  0  0  0  0  0
    0.3293    1.2278    1.1543 H   0  0  0  0  0  0  0  0  0  0  0  0
    0.1062    1.7864   -0.5080 H   0  0  0  0  0  0  0  0  0  0  0  0
   -2.0078    1.3200    0.5376 H   0  0  0  0  0  0  0  0  0  0  0  0
   -1.7404    0.8883   -1.9192 H   0  0  0  0  0  0  0  0  0  0  0  0
   -3.0263   -0.0613   -1.1715 H   0  0  0  0  0  0  0  0  0  0  0  0
   -1.4931   -0.8252   -1.5669 H   0  0  0  0  0  0  0  0  0  0  0  0
   -2.7085   -0.9464    1.2075 H   0  0  0  0  0  0  0  0  0  0  0  0
   -1.0955   -1.5717    0.8470 H   0  0  0  0  0  0  0  0  0  0  0  0
   -1.3125   -0.4174    2.1537 H   0  0  0  0  0  0  0  0  0  0  0  0
    2.0302   -1.6168    0.4955 H   0  0  0  0  0  0  0  0  0  0  0  0
  1  2  1  0  0  0  0
  2  3  1  0  0  0  0
  2  4  1  0  0  0  0
  4  5  1  0  0  0  0
  5  6  1  0  0  0  0
  5  7  1  0  0  0  0
  2  8  1  0  0  0  0
  1  9  1  0  0  0  0
  1 10  1  0  0  0  0
  1 11  1  0  0  0  0
  4 12  1  0  0  0  0
  4 13  1  0  0  0  0
  5 14  1  0  0  0  0
  6 15  1  0  0  0  0
  6 16  1  0  0  0  0
  6 17  1  0  0  0  0
  7 18  1  0  0  0  0
  7 19  1  0  0  0  0
  7 20  1  0  0  0  0
  8 21  1  0  0  0  0
M  END
