 xtb: 6.7.1 (edcfbbe)
          04112511443D

 25 25  0     0  0            999 V2000
    3.5738   -0.6716    0.0229 C   0  0  0  0  0  0  0  0  0  0  0  0
    2.2336   -0.1908    0.4876 C   0  0  0  0  0  0  0  0  0  0  0  0
    1.8642   -0.2342    1.7574 C   0  0  0  0  0  0  0  0  0  0  0  0
    1.3177    0.3089   -0.6089 C   0  0  0  0  0  0  0  0  0  0  0  0
    1.9396    0.6024   -1.4584 H   0  0  0  0  0  0  0  0  0  0  0  0
    0.3802   -0.8358   -1.0524 C   0  0  0  0  0  0  0  0  0  0  0  0
   -1.0488   -0.3521   -1.3205 C   0  0  0  0  0  0  0  0  0  0  0  0
   -1.5551    0.3274   -0.0853 C   0  0  0  0  0  0  0  0  0  0  0  0
   -0.7539    1.2418    0.4903 C   0  0  0  0  0  0  0  0  0  0  0  0
    0.5351    1.5691   -0.1618 C   0  0  0  0  0  0  0  0  0  0  0  0
   -2.8293   -0.0400    0.4867 C   0  0  0  0  0  0  0  0  0  0  0  0
   -3.5956   -0.8785    0.0435 O   0  0  0  0  0  0  0  0  0  0  0  0
    4.1337    0.1498   -0.4219 H   0  0  0  0  0  0  0  0  0  0  0  0
    4.1502   -1.0815    0.8474 H   0  0  0  0  0  0  0  0  0  0  0  0
    3.4498   -1.4408   -0.7377 H   0  0  0  0  0  0  0  0  0  0  0  0
    0.8936    0.1021    2.0817 H   0  0  0  0  0  0  0  0  0  0  0  0
    2.5147   -0.6172    2.5252 H   0  0  0  0  0  0  0  0  0  0  0  0
    0.7753   -1.3163   -1.9470 H   0  0  0  0  0  0  0  0  0  0  0  0
    0.3361   -1.5888   -0.2625 H   0  0  0  0  0  0  0  0  0  0  0  0
   -1.0496    0.3507   -2.1572 H   0  0  0  0  0  0  0  0  0  0  0  0
   -1.6988   -1.1906   -1.5738 H   0  0  0  0  0  0  0  0  0  0  0  0
   -1.0425    1.7543    1.3962 H   0  0  0  0  0  0  0  0  0  0  0  0
    0.3049    2.1472   -1.0619 H   0  0  0  0  0  0  0  0  0  0  0  0
    1.1650    2.1820    0.4810 H   0  0  0  0  0  0  0  0  0  0  0  0
   -3.0961    0.5146    1.4070 H   0  0  0  0  0  0  0  0  0  0  0  0
  1  2  1  0  0  0  0
  2  3  2  0  0  0  0
  2  4  1  0  0  0  0
  4  5  1  0  0  0  0
  4  6  1  0  0  0  0
  6  7  1  0  0  0  0
  7  8  1  0  0  0  0
  8  9  2  0  0  0  0
  4 10  1  0  0  0  0
  9 10  1  0  0  0  0
  8 11  1  0  0  0  0
 11 12  2  0  0  0  0
  1 13  1  0  0  0  0
  1 14  1  0  0  0  0
  1 15  1  0  0  0  0
  3 16  1  0  0  0  0
  3 17  1  0  0  0  0
  6 18  1  0  0  0  0
  6 19  1  0  0  0  0
  7 20  1  0  0  0  0
  7 21  1  0  0  0  0
  9 22  1  0  0  0  0
 10 23  1  0  0  0  0
 10 24  1  0  0  0  0
 11 25  1  0  0  0  0
M  END
