 xtb: 6.7.1 (edcfbbe)
          04112512203D

 18 17  0     0  0            999 V2000
   -1.4704    1.2666   -0.4680 C   0  0  0  0  0  0  0  0  0  0  0  0
   -1.3340    0.2622    0.6724 C   0  0  0  0  0  0  0  0  0  0  0  0
   -0.1047   -0.6594    0.6134 C   0  0  0  0  0  0  0  0  0  0  0  0
   -0.1113   -1.2357    1.5458 H   0  0  0  0  0  0  0  0  0  0  0  0
   -0.1718   -1.6485   -0.5491 C   0  0  0  0  0  0  0  0  0  0  0  0
    1.2334    0.1049    0.6000 C   0  0  0  0  0  0  0  0  0  0  0  0
    1.6718    0.5299   -0.6712 O   0  0  0  0  0  0  0  0  0  0  0  0
   -1.4008    0.7753   -1.4347 H   0  0  0  0  0  0  0  0  0  0  0  0
   -2.4414    1.7536   -0.4091 H   0  0  0  0  0  0  0  0  0  0  0  0
   -0.7123    2.0434   -0.3991 H   0  0  0  0  0  0  0  0  0  0  0  0
   -2.2218   -0.3741    0.6886 H   0  0  0  0  0  0  0  0  0  0  0  0
   -1.3086    0.8088    1.6185 H   0  0  0  0  0  0  0  0  0  0  0  0
   -0.0892   -1.1375   -1.5043 H   0  0  0  0  0  0  0  0  0  0  0  0
   -1.1093   -2.1979   -0.5245 H   0  0  0  0  0  0  0  0  0  0  0  0
    0.6504   -2.3567   -0.4803 H   0  0  0  0  0  0  0  0  0  0  0  0
    2.0280   -0.5583    0.9524 H   0  0  0  0  0  0  0  0  0  0  0  0
    1.1739    0.9602    1.2879 H   0  0  0  0  0  0  0  0  0  0  0  0
    1.0219    1.1430   -1.0401 H   0  0  0  0  0  0  0  0  0  0  0  0
  1  2  1  0  0  0  0
  2  3  1  0  0  0  0
  3  4  1  0  0  0  0
  3  5  1  0  0  0  0
  3  6  1  0  0  0  0
  6  7  1  0  0  0  0
  1  8  1  0  0  0  0
  1  9  1  0  0  0  0
  1 10  1  0  0  0  0
  2 11  1  0  0  0  0
  2 12  1  0  0  0  0
  5 13  1  0  0  0  0
  5 14  1  0  0  0  0
  5 15  1  0  0  0  0
  6 16  1  0  0  0  0
  6 17  1  0  0  0  0
  7 18  1  0  0  0  0
M  END
