 xtb: 6.7.1 (edcfbbe)
          04112511493D

 21 20  0     0  0            999 V2000
    1.8938    0.7358   -1.0684 C   0  0  0  0  0  0  0  0  0  0  0  0
    1.4348   -0.2207    0.0352 C   0  0  0  0  0  0  0  0  0  0  0  0
    2.1998   -1.0127    0.1228 H   0  0  0  0  0  0  0  0  0  0  0  0
    0.0937   -0.9108   -0.2901 C   0  0  0  0  0  0  0  0  0  0  0  0
   -1.1632   -0.2287    0.2661 C   0  0  0  0  0  0  0  0  0  0  0  0
   -1.4019    1.1557   -0.3301 C   0  0  0  0  0  0  0  0  0  0  0  0
   -2.3734   -1.1236    0.0006 C   0  0  0  0  0  0  0  0  0  0  0  0
    1.3229    0.4344    1.2879 O   0  0  0  0  0  0  0  0  0  0  0  0
    1.9931    0.1920   -2.0033 H   0  0  0  0  0  0  0  0  0  0  0  0
    1.1821    1.5435   -1.2040 H   0  0  0  0  0  0  0  0  0  0  0  0
    2.8625    1.1632   -0.8163 H   0  0  0  0  0  0  0  0  0  0  0  0
    0.0067   -1.0034   -1.3736 H   0  0  0  0  0  0  0  0  0  0  0  0
    0.1244   -1.9187    0.1287 H   0  0  0  0  0  0  0  0  0  0  0  0
   -1.0347   -0.1202    1.3474 H   0  0  0  0  0  0  0  0  0  0  0  0
   -2.3657    1.5395   -0.0024 H   0  0  0  0  0  0  0  0  0  0  0  0
   -1.4017    1.1108   -1.4173 H   0  0  0  0  0  0  0  0  0  0  0  0
   -0.6359    1.8502    0.0016 H   0  0  0  0  0  0  0  0  0  0  0  0
   -3.2712   -0.6823    0.4265 H   0  0  0  0  0  0  0  0  0  0  0  0
   -2.5249   -1.2457   -1.0699 H   0  0  0  0  0  0  0  0  0  0  0  0
   -2.2331   -2.1072    0.4428 H   0  0  0  0  0  0  0  0  0  0  0  0
    2.1671    0.8546    1.4983 H   0  0  0  0  0  0  0  0  0  0  0  0
  1  2  1  0  0  0  0
  2  3  1  0  0  0  0
  2  4  1  0  0  0  0
  4  5  1  0  0  0  0
  5  6  1  0  0  0  0
  5  7  1  0  0  0  0
  2  8  1  0  0  0  0
  1  9  1  0  0  0  0
  1 10  1  0  0  0  0
  1 11  1  0  0  0  0
  4 12  1  0  0  0  0
  4 13  1  0  0  0  0
  5 14  1  0  0  0  0
  6 15  1  0  0  0  0
  6 16  1  0  0  0  0
  6 17  1  0  0  0  0
  7 18  1  0  0  0  0
  7 19  1  0  0  0  0
  7 20  1  0  0  0  0
  8 21  1  0  0  0  0
M  END
