 xtb: 6.7.1 (edcfbbe)
          04112511523D

 13 12  0     0  0            999 V2000
   -2.4228    0.0043    0.1389 C   0  0  0  0  0  0  0  0  0  0  0  0
   -1.1696    0.1194   -0.5035 O   0  0  0  0  0  0  0  0  0  0  0  0
   -0.0798   -0.0914    0.3693 C   0  0  0  0  0  0  0  0  0  0  0  0
    1.2119    0.0870   -0.4338 C   0  0  0  0  0  0  0  0  0  0  0  0
    2.3654   -0.0547    0.3574 O   0  0  0  0  0  0  0  0  0  0  0  0
   -2.5552   -0.9979    0.5606 H   0  0  0  0  0  0  0  0  0  0  0  0
   -3.1726    0.1848   -0.6268 H   0  0  0  0  0  0  0  0  0  0  0  0
   -2.5214    0.7457    0.9389 H   0  0  0  0  0  0  0  0  0  0  0  0
   -0.1047    0.6318    1.1979 H   0  0  0  0  0  0  0  0  0  0  0  0
   -0.1308   -1.1063    0.7941 H   0  0  0  0  0  0  0  0  0  0  0  0
    1.2414    1.1004   -0.8392 H   0  0  0  0  0  0  0  0  0  0  0  0
    1.2120   -0.6195   -1.2724 H   0  0  0  0  0  0  0  0  0  0  0  0
    2.4296   -0.9654    0.6789 H   0  0  0  0  0  0  0  0  0  0  0  0
  1  2  1  0  0  0  0
  2  3  1  0  0  0  0
  3  4  1  0  0  0  0
  4  5  1  0  0  0  0
  1  6  1  0  0  0  0
  1  7  1  0  0  0  0
  1  8  1  0  0  0  0
  3  9  1  0  0  0  0
  3 10  1  0  0  0  0
  4 11  1  0  0  0  0
  4 12  1  0  0  0  0
  5 13  1  0  0  0  0
M  END
