 xtb: 6.7.1 (edcfbbe)
          04112511233D

 26 25  0     0  0            999 V2000
   -1.6008   -0.1666    1.5073 C   0  0  0  0  0  0  0  0  0  0  0  0
   -1.2985   -0.4717    0.0412 C   0  0  0  0  0  0  0  0  0  0  0  0
   -2.5135   -0.1285   -0.8211 C   0  0  0  0  0  0  0  0  0  0  0  0
   -0.0147    0.2231   -0.4661 C   0  0  0  0  0  0  0  0  0  0  0  0
   -0.0448    1.7342   -0.2384 C   0  0  0  0  0  0  0  0  0  0  0  0
    1.2469   -0.4875    0.1042 C   0  0  0  0  0  0  0  0  0  0  0  0
    1.9987   -1.1978   -1.0234 C   0  0  0  0  0  0  0  0  0  0  0  0
    2.2196    0.4143    0.8634 C   0  0  0  0  0  0  0  0  0  0  0  0
   -0.7269   -0.3377    2.1307 H   0  0  0  0  0  0  0  0  0  0  0  0
   -1.9176    0.8659    1.6282 H   0  0  0  0  0  0  0  0  0  0  0  0
   -2.4038   -0.8090    1.8626 H   0  0  0  0  0  0  0  0  0  0  0  0
   -1.1297   -1.5517   -0.0543 H   0  0  0  0  0  0  0  0  0  0  0  0
   -2.3149   -0.3428   -1.8689 H   0  0  0  0  0  0  0  0  0  0  0  0
   -2.7782    0.9215   -0.7270 H   0  0  0  0  0  0  0  0  0  0  0  0
   -3.3709   -0.7199   -0.5077 H   0  0  0  0  0  0  0  0  0  0  0  0
    0.0007    0.0773   -1.5527 H   0  0  0  0  0  0  0  0  0  0  0  0
   -0.9390    2.1568   -0.6894 H   0  0  0  0  0  0  0  0  0  0  0  0
    0.8144    2.2040   -0.7093 H   0  0  0  0  0  0  0  0  0  0  0  0
   -0.0406    1.9868    0.8168 H   0  0  0  0  0  0  0  0  0  0  0  0
    0.9129   -1.2573    0.8086 H   0  0  0  0  0  0  0  0  0  0  0  0
    2.8470   -1.7526   -0.6281 H   0  0  0  0  0  0  0  0  0  0  0  0
    1.3450   -1.8970   -1.5401 H   0  0  0  0  0  0  0  0  0  0  0  0
    2.3706   -0.4735   -1.7454 H   0  0  0  0  0  0  0  0  0  0  0  0
    3.0370   -0.1893    1.2534 H   0  0  0  0  0  0  0  0  0  0  0  0
    1.7350    0.9037    1.7031 H   0  0  0  0  0  0  0  0  0  0  0  0
    2.6443    1.1735    0.2123 H   0  0  0  0  0  0  0  0  0  0  0  0
  1  2  1  0  0  0  0
  2  3  1  0  0  0  0
  2  4  1  0  0  0  0
  4  5  1  0  0  0  0
  4  6  1  0  0  0  0
  6  7  1  0  0  0  0
  6  8  1  0  0  0  0
  1  9  1  0  0  0  0
  1 10  1  0  0  0  0
  1 11  1  0  0  0  0
  2 12  1  0  0  0  0
  3 13  1  0  0  0  0
  3 14  1  0  0  0  0
  3 15  1  0  0  0  0
  4 16  1  0  0  0  0
  5 17  1  0  0  0  0
  5 18  1  0  0  0  0
  5 19  1  0  0  0  0
  6 20  1  0  0  0  0
  7 21  1  0  0  0  0
  7 22  1  0  0  0  0
  7 23  1  0  0  0  0
  8 24  1  0  0  0  0
  8 25  1  0  0  0  0
  8 26  1  0  0  0  0
M  END
