 xtb: 6.7.1 (edcfbbe)
          04112511493D

 21 20  0     0  0            999 V2000
    2.4242   -0.1728   -0.9026 C   0  0  0  0  0  0  0  0  0  0  0  0
    1.2534   -0.2612    0.0725 C   0  0  0  0  0  0  0  0  0  0  0  0
    1.0722   -1.3213    0.3107 H   0  0  0  0  0  0  0  0  0  0  0  0
   -0.0117    0.3613   -0.5340 C   0  0  0  0  0  0  0  0  0  0  0  0
   -1.3097    0.0338    0.2160 C   0  0  0  0  0  0  0  0  0  0  0  0
   -2.4126    1.0029   -0.2085 C   0  0  0  0  0  0  0  0  0  0  0  0
   -1.7552   -1.4043   -0.0422 C   0  0  0  0  0  0  0  0  0  0  0  0
    1.6542    0.4112    1.2579 O   0  0  0  0  0  0  0  0  0  0  0  0
    2.2187   -0.7605   -1.7916 H   0  0  0  0  0  0  0  0  0  0  0  0
    2.5902    0.8639   -1.1830 H   0  0  0  0  0  0  0  0  0  0  0  0
    3.3245   -0.5480   -0.4237 H   0  0  0  0  0  0  0  0  0  0  0  0
    0.1358    1.4439   -0.5492 H   0  0  0  0  0  0  0  0  0  0  0  0
   -0.1059    0.0218   -1.5664 H   0  0  0  0  0  0  0  0  0  0  0  0
   -1.1453    0.1583    1.2928 H   0  0  0  0  0  0  0  0  0  0  0  0
   -2.5897    0.9253   -1.2788 H   0  0  0  0  0  0  0  0  0  0  0  0
   -2.1341    2.0289    0.0203 H   0  0  0  0  0  0  0  0  0  0  0  0
   -3.3405    0.7752    0.3108 H   0  0  0  0  0  0  0  0  0  0  0  0
   -2.6645   -1.6231    0.5127 H   0  0  0  0  0  0  0  0  0  0  0  0
   -1.9556   -1.5507   -1.1012 H   0  0  0  0  0  0  0  0  0  0  0  0
   -0.9921   -2.1155    0.2634 H   0  0  0  0  0  0  0  0  0  0  0  0
    0.9184    0.4208    1.8839 H   0  0  0  0  0  0  0  0  0  0  0  0
  1  2  1  0  0  0  0
  2  3  1  0  0  0  0
  2  4  1  0  0  0  0
  4  5  1  0  0  0  0
  5  6  1  0  0  0  0
  5  7  1  0  0  0  0
  2  8  1  0  0  0  0
  1  9  1  0  0  0  0
  1 10  1  0  0  0  0
  1 11  1  0  0  0  0
  4 12  1  0  0  0  0
  4 13  1  0  0  0  0
  5 14  1  0  0  0  0
  6 15  1  0  0  0  0
  6 16  1  0  0  0  0
  6 17  1  0  0  0  0
  7 18  1  0  0  0  0
  7 19  1  0  0  0  0
  7 20  1  0  0  0  0
  8 21  1  0  0  0  0
M  END
