 xtb: 6.7.1 (edcfbbe)
          04112511583D

 18 17  0     0  0            999 V2000
   -2.5299    0.0885    0.3034 C   0  0  0  0  0  0  0  0  0  0  0  0
   -1.2665    0.7074   -0.2837 C   0  0  0  0  0  0  0  0  0  0  0  0
   -0.0001   -0.0119    0.2014 C   0  0  0  0  0  0  0  0  0  0  0  0
    1.2662    0.7082   -0.2829 C   0  0  0  0  0  0  0  0  0  0  0  0
    2.5297    0.0885    0.3031 C   0  0  0  0  0  0  0  0  0  0  0  0
    0.0005   -1.3734   -0.1879 O   0  0  0  0  0  0  0  0  0  0  0  0
   -2.5542   -0.9793    0.0987 H   0  0  0  0  0  0  0  0  0  0  0  0
   -2.5527    0.2272    1.3818 H   0  0  0  0  0  0  0  0  0  0  0  0
   -3.4161    0.5488   -0.1253 H   0  0  0  0  0  0  0  0  0  0  0  0
   -1.3043    0.6560   -1.3747 H   0  0  0  0  0  0  0  0  0  0  0  0
   -1.2036    1.7582    0.0013 H   0  0  0  0  0  0  0  0  0  0  0  0
   -0.0004   -0.0454    1.2971 H   0  0  0  0  0  0  0  0  0  0  0  0
    1.3039    0.6583   -1.3740 H   0  0  0  0  0  0  0  0  0  0  0  0
    1.2033    1.7585    0.0036 H   0  0  0  0  0  0  0  0  0  0  0  0
    2.5527    0.2256    1.3816 H   0  0  0  0  0  0  0  0  0  0  0  0
    2.5540   -0.9790    0.0968 H   0  0  0  0  0  0  0  0  0  0  0  0
    3.4158    0.5494   -0.1252 H   0  0  0  0  0  0  0  0  0  0  0  0
   -0.0001   -1.4138   -1.1548 H   0  0  0  0  0  0  0  0  0  0  0  0
  1  2  1  0  0  0  0
  2  3  1  0  0  0  0
  3  4  1  0  0  0  0
  4  5  1  0  0  0  0
  3  6  1  0  0  0  0
  1  7  1  0  0  0  0
  1  8  1  0  0  0  0
  1  9  1  0  0  0  0
  2 10  1  0  0  0  0
  2 11  1  0  0  0  0
  3 12  1  0  0  0  0
  4 13  1  0  0  0  0
  4 14  1  0  0  0  0
  5 15  1  0  0  0  0
  5 16  1  0  0  0  0
  5 17  1  0  0  0  0
  6 18  1  0  0  0  0
M  END
