 xtb: 6.7.1 (edcfbbe)
          04112511493D

 21 20  0     0  0            999 V2000
    2.4589   -0.0727   -0.9118 C   0  0  0  0  0  0  0  0  0  0  0  0
    1.2564   -0.2863    0.0082 C   0  0  0  0  0  0  0  0  0  0  0  0
    1.1043   -1.3684    0.1489 H   0  0  0  0  0  0  0  0  0  0  0  0
   -0.0067    0.3324   -0.5966 C   0  0  0  0  0  0  0  0  0  0  0  0
   -1.2749    0.0686    0.2238 C   0  0  0  0  0  0  0  0  0  0  0  0
   -2.3872    1.0171   -0.2202 C   0  0  0  0  0  0  0  0  0  0  0  0
   -1.7449   -1.3781    0.0858 C   0  0  0  0  0  0  0  0  0  0  0  0
    1.4623    0.3197    1.2756 O   0  0  0  0  0  0  0  0  0  0  0  0
    2.2699   -0.5252   -1.8805 H   0  0  0  0  0  0  0  0  0  0  0  0
    2.6353    0.9919   -1.0466 H   0  0  0  0  0  0  0  0  0  0  0  0
    3.3526   -0.5246   -0.4869 H   0  0  0  0  0  0  0  0  0  0  0  0
    0.1569    1.4104   -0.6538 H   0  0  0  0  0  0  0  0  0  0  0  0
   -0.1389   -0.0508   -1.6094 H   0  0  0  0  0  0  0  0  0  0  0  0
   -1.0400    0.2686    1.2744 H   0  0  0  0  0  0  0  0  0  0  0  0
   -2.6164    0.8627   -1.2725 H   0  0  0  0  0  0  0  0  0  0  0  0
   -2.0880    2.0531   -0.0804 H   0  0  0  0  0  0  0  0  0  0  0  0
   -3.2906    0.8404    0.3585 H   0  0  0  0  0  0  0  0  0  0  0  0
   -2.6473   -1.5368    0.6714 H   0  0  0  0  0  0  0  0  0  0  0  0
   -1.9659   -1.6049   -0.9553 H   0  0  0  0  0  0  0  0  0  0  0  0
   -0.9879   -2.0736    0.4379 H   0  0  0  0  0  0  0  0  0  0  0  0
    2.2839   -0.0156    1.6576 H   0  0  0  0  0  0  0  0  0  0  0  0
  1  2  1  0  0  0  0
  2  3  1  0  0  0  0
  2  4  1  0  0  0  0
  4  5  1  0  0  0  0
  5  6  1  0  0  0  0
  5  7  1  0  0  0  0
  2  8  1  0  0  0  0
  1  9  1  0  0  0  0
  1 10  1  0  0  0  0
  1 11  1  0  0  0  0
  4 12  1  0  0  0  0
  4 13  1  0  0  0  0
  5 14  1  0  0  0  0
  6 15  1  0  0  0  0
  6 16  1  0  0  0  0
  6 17  1  0  0  0  0
  7 18  1  0  0  0  0
  7 19  1  0  0  0  0
  7 20  1  0  0  0  0
  8 21  1  0  0  0  0
M  END
