 xtb: 6.7.1 (edcfbbe)
          04112511573D

 14 13  0     0  0            999 V2000
    1.1017    1.4358    0.2616 C   0  0  0  0  0  0  0  0  0  0  0  0
    0.7450    0.0594   -0.2848 C   0  0  0  0  0  0  0  0  0  0  0  0
    1.9376   -0.8830   -0.3170 C   0  0  0  0  0  0  0  0  0  0  0  0
   -0.2496   -0.5500    0.5852 O   0  0  0  0  0  0  0  0  0  0  0  0
   -1.5119   -0.3586    0.3291 C   0  0  0  0  0  0  0  0  0  0  0  0
   -1.9865    0.2810   -0.5771 O   0  0  0  0  0  0  0  0  0  0  0  0
    1.4838    1.3448    1.2750 H   0  0  0  0  0  0  0  0  0  0  0  0
    1.8593    1.8907   -0.3680 H   0  0  0  0  0  0  0  0  0  0  0  0
    0.2218    2.0754    0.2701 H   0  0  0  0  0  0  0  0  0  0  0  0
    0.2920    0.1576   -1.2790 H   0  0  0  0  0  0  0  0  0  0  0  0
    2.3465   -0.9920    0.6833 H   0  0  0  0  0  0  0  0  0  0  0  0
    2.7002   -0.4796   -0.9750 H   0  0  0  0  0  0  0  0  0  0  0  0
    1.6360   -1.8613   -0.6806 H   0  0  0  0  0  0  0  0  0  0  0  0
   -2.1237   -0.8865    1.0777 H   0  0  0  0  0  0  0  0  0  0  0  0
  1  2  1  0  0  0  0
  2  3  1  0  0  0  0
  2  4  1  0  0  0  0
  4  5  4  0  0  0  0
  5  6  2  0  0  0  0
  1  7  1  0  0  0  0
  1  8  1  0  0  0  0
  1  9  1  0  0  0  0
  2 10  1  0  0  0  0
  3 11  1  0  0  0  0
  3 12  1  0  0  0  0
  3 13  1  0  0  0  0
  5 14  1  0  0  0  0
M  END
