 xtb: 6.7.1 (edcfbbe)
          04112511193D

 14 13  0     0  0            999 V2000
   -1.4421    0.3742   -0.2525 C   0  0  0  0  0  0  0  0  0  0  0  0
   -0.0058    0.3138    0.2891 C   0  0  0  0  0  0  0  0  0  0  0  0
    0.8379   -0.7626   -0.4042 C   0  0  0  0  0  0  0  0  0  0  0  0
    2.1333   -0.7104    0.1585 O   0  0  0  0  0  0  0  0  0  0  0  0
    0.5615    1.5894    0.0872 O   0  0  0  0  0  0  0  0  0  0  0  0
   -2.2433   -0.7090    0.1465 O   0  0  0  0  0  0  0  0  0  0  0  0
   -1.4132    0.4741   -1.3436 H   0  0  0  0  0  0  0  0  0  0  0  0
   -1.9100    1.2705    0.1611 H   0  0  0  0  0  0  0  0  0  0  0  0
   -0.0430    0.0857    1.3662 H   0  0  0  0  0  0  0  0  0  0  0  0
    0.8760   -0.5486   -1.4803 H   0  0  0  0  0  0  0  0  0  0  0  0
    0.3856   -1.7467   -0.2378 H   0  0  0  0  0  0  0  0  0  0  0  0
    2.6988   -1.3684   -0.2667 H   0  0  0  0  0  0  0  0  0  0  0  0
    1.5050    1.5267    0.3023 H   0  0  0  0  0  0  0  0  0  0  0  0
   -1.9957   -1.5028   -0.3463 H   0  0  0  0  0  0  0  0  0  0  0  0
  1  2  1  0  0  0  0
  2  3  1  0  0  0  0
  3  4  1  0  0  0  0
  2  5  1  0  0  0  0
  1  6  1  0  0  0  0
  1  7  1  0  0  0  0
  1  8  1  0  0  0  0
  2  9  1  0  0  0  0
  3 10  1  0  0  0  0
  3 11  1  0  0  0  0
  4 12  1  0  0  0  0
  5 13  1  0  0  0  0
  6 14  1  0  0  0  0
M  END
