 xtb: 6.7.1 (edcfbbe)
          04112511063D

 14 13  0     0  0            999 V2000
   -3.4115   -0.6910   -0.5229 C   0  0  0  0  0  0  0  0  0  0  0  0
   -2.7834    0.1047    0.6162 C   0  0  0  0  0  0  0  0  0  0  0  0
   -1.2882   -0.1718    0.7949 C   0  0  0  0  0  0  0  0  0  0  0  0
   -0.4799    0.3432   -0.3802 C   0  0  0  0  0  0  0  0  0  0  0  0
    1.4533    0.0795   -0.0810 Br  0  0  0  0  0  0  0  0  0  0  0  0
   -3.0199   -0.3785   -1.4874 H   0  0  0  0  0  0  0  0  0  0  0  0
   -3.2174   -1.7536   -0.3973 H   0  0  0  0  0  0  0  0  0  0  0  0
   -4.4876   -0.5393   -0.5327 H   0  0  0  0  0  0  0  0  0  0  0  0
   -3.2851   -0.1570    1.5491 H   0  0  0  0  0  0  0  0  0  0  0  0
   -2.9361    1.1722    0.4454 H   0  0  0  0  0  0  0  0  0  0  0  0
   -0.9416    0.3178    1.7079 H   0  0  0  0  0  0  0  0  0  0  0  0
   -1.1246   -1.2457    0.9084 H   0  0  0  0  0  0  0  0  0  0  0  0
   -0.6102    1.4145   -0.5244 H   0  0  0  0  0  0  0  0  0  0  0  0
   -0.7011   -0.1900   -1.3019 H   0  0  0  0  0  0  0  0  0  0  0  0
  1  2  1  0  0  0  0
  2  3  1  0  0  0  0
  3  4  1  0  0  0  0
  4  5  1  0  0  0  0
  1  6  1  0  0  0  0
  1  7  1  0  0  0  0
  1  8  1  0  0  0  0
  2  9  1  0  0  0  0
  2 10  1  0  0  0  0
  3 11  1  0  0  0  0
  3 12  1  0  0  0  0
  4 13  1  0  0  0  0
  4 14  1  0  0  0  0
M  END
