 xtb: 6.7.1 (edcfbbe)
          04112511523D

 13 12  0     0  0            999 V2000
    2.3254   -0.4009   -0.8782 C   0  0  0  0  0  0  0  0  0  0  0  0
    1.1861   -0.8233   -0.1084 O   0  0  0  0  0  0  0  0  0  0  0  0
    0.0095    0.1980    0.0290 S   0  0  0  0  0  0  0  0  0  0  0  0
   -0.2254    0.8720   -1.2158 O   0  0  0  0  0  0  0  0  0  0  0  0
    0.1838    1.0410    1.1767 O   0  0  0  0  0  0  0  0  0  0  0  0
   -1.1068   -0.8669    0.3086 O   0  0  0  0  0  0  0  0  0  0  0  0
   -2.3795   -0.3018    0.6645 C   0  0  0  0  0  0  0  0  0  0  0  0
    1.9741    0.1417   -1.7550 H   0  0  0  0  0  0  0  0  0  0  0  0
    2.8458   -1.3137   -1.1586 H   0  0  0  0  0  0  0  0  0  0  0  0
    2.9582    0.2398   -0.2648 H   0  0  0  0  0  0  0  0  0  0  0  0
   -2.2445    0.3647    1.5160 H   0  0  0  0  0  0  0  0  0  0  0  0
   -3.0156   -1.1465    0.9168 H   0  0  0  0  0  0  0  0  0  0  0  0
   -2.7740    0.2528   -0.1866 H   0  0  0  0  0  0  0  0  0  0  0  0
  1  2  1  0  0  0  0
  2  3  1  0  0  0  0
  3  4  2  0  0  0  0
  3  5  2  0  0  0  0
  3  6  1  0  0  0  0
  6  7  1  0  0  0  0
  1  8  1  0  0  0  0
  1  9  1  0  0  0  0
  1 10  1  0  0  0  0
  7 11  1  0  0  0  0
  7 12  1  0  0  0  0
  7 13  1  0  0  0  0
M  END
