 xtb: 6.7.1 (edcfbbe)
          04112512013D

 22 22  0     0  0            999 V2000
    4.9511    1.2048    0.0134 C   0  0  0  0  0  0  0  0  0  0  0  0
    4.5334   -0.2547   -0.1168 C   0  0  0  0  0  0  0  0  0  0  0  0
    3.0533   -0.5720   -0.0460 C   0  0  0  0  0  0  0  0  0  0  0  0
    2.6717   -1.7316    0.0495 O   0  0  0  0  0  0  0  0  0  0  0  0
    2.2196    0.4973   -0.1105 N   0  0  0  0  0  0  0  0  0  0  0  0
    0.8294    0.5345   -0.0795 C   0  0  0  0  0  0  0  0  0  0  0  0
    0.2046    1.7812   -0.1620 C   0  0  0  0  0  0  0  0  0  0  0  0
   -1.1708    1.8812   -0.1356 C   0  0  0  0  0  0  0  0  0  0  0  0
   -1.9494    0.7386   -0.0259 C   0  0  0  0  0  0  0  0  0  0  0  0
   -1.3332   -0.5033    0.0566 C   0  0  0  0  0  0  0  0  0  0  0  0
    0.0457   -0.6117    0.0305 C   0  0  0  0  0  0  0  0  0  0  0  0
   -2.2892   -1.9436    0.1944 Cl  0  0  0  0  0  0  0  0  0  0  0  0
   -3.6781    0.8639    0.0075 Cl  0  0  0  0  0  0  0  0  0  0  0  0
    4.6133    1.7961   -0.8343 H   0  0  0  0  0  0  0  0  0  0  0  0
    6.0367    1.2572    0.0334 H   0  0  0  0  0  0  0  0  0  0  0  0
    4.5820    1.6386    0.9394 H   0  0  0  0  0  0  0  0  0  0  0  0
    5.0071   -0.8545    0.6636 H   0  0  0  0  0  0  0  0  0  0  0  0
    4.8845   -0.6613   -1.0689 H   0  0  0  0  0  0  0  0  0  0  0  0
    2.6592    1.4058   -0.1913 H   0  0  0  0  0  0  0  0  0  0  0  0
    0.7968    2.6781   -0.2471 H   0  0  0  0  0  0  0  0  0  0  0  0
   -1.6534    2.8421   -0.1992 H   0  0  0  0  0  0  0  0  0  0  0  0
    0.5115   -1.5808    0.0952 H   0  0  0  0  0  0  0  0  0  0  0  0
  1  2  1  0  0  0  0
  2  3  1  0  0  0  0
  3  4  2  0  0  0  0
  3  5  4  0  0  0  0
  5  6  1  0  0  0  0
  6  7  4  0  0  0  0
  7  8  4  0  0  0  0
  8  9  4  0  0  0  0
  9 10  4  0  0  0  0
  6 11  4  0  0  0  0
 10 11  4  0  0  0  0
 10 12  1  0  0  0  0
  9 13  1  0  0  0  0
  1 14  1  0  0  0  0
  1 15  1  0  0  0  0
  1 16  1  0  0  0  0
  2 17  1  0  0  0  0
  2 18  1  0  0  0  0
  5 19  1  0  0  0  0
  7 20  1  0  0  0  0
  8 21  1  0  0  0  0
 11 22  1  0  0  0  0
M  END
