 xtb: 6.7.1 (edcfbbe)
          04112510483D

 27 27  0     0  0            999 V2000
   -4.0328   -0.6319   -1.6316 C   0  0  0  0  0  0  0  0  0  0  0  0
   -3.0326   -1.5483   -0.9361 C   0  0  0  0  0  0  0  0  0  0  0  0
   -2.4617   -1.0404    0.3981 C   0  0  0  0  0  0  0  0  0  0  0  0
   -1.9774   -1.9006    0.8762 H   0  0  0  0  0  0  0  0  0  0  0  0
   -3.5069   -0.4940    1.3605 C   0  0  0  0  0  0  0  0  0  0  0  0
   -1.3382   -0.1017    0.1837 N   0  0  0  0  0  0  0  0  0  0  0  0
   -0.0644   -0.6794    0.2332 C   0  0  0  0  0  0  0  0  0  0  0  0
    0.0818   -1.8779    0.4105 O   0  0  0  0  0  0  0  0  0  0  0  0
    1.0347    0.2404    0.0702 C   0  0  0  0  0  0  0  0  0  0  0  0
    0.8572    1.5700   -0.1388 C   0  0  0  0  0  0  0  0  0  0  0  0
   -0.4259    2.0121   -0.2017 N   0  0  0  0  0  0  0  0  0  0  0  0
   -1.5533    1.2304   -0.0727 C   0  0  0  0  0  0  0  0  0  0  0  0
   -2.6465    1.7503   -0.1900 O   0  0  0  0  0  0  0  0  0  0  0  0
    1.9547    2.5525   -0.3138 C   0  0  0  0  0  0  0  0  0  0  0  0
    2.7712   -0.5257    0.1587 Br  0  0  0  0  0  0  0  0  0  0  0  0
   -3.6260    0.3634   -1.7820 H   0  0  0  0  0  0  0  0  0  0  0  0
   -4.2915   -1.0508   -2.6008 H   0  0  0  0  0  0  0  0  0  0  0  0
   -4.9420   -0.5422   -1.0449 H   0  0  0  0  0  0  0  0  0  0  0  0
   -3.5178   -2.5047   -0.7331 H   0  0  0  0  0  0  0  0  0  0  0  0
   -2.1894   -1.7497   -1.6025 H   0  0  0  0  0  0  0  0  0  0  0  0
   -4.0015    0.3836    0.9591 H   0  0  0  0  0  0  0  0  0  0  0  0
   -4.2443   -1.2706    1.5401 H   0  0  0  0  0  0  0  0  0  0  0  0
   -3.0406   -0.2308    2.3073 H   0  0  0  0  0  0  0  0  0  0  0  0
   -0.6090    2.9951   -0.3800 H   0  0  0  0  0  0  0  0  0  0  0  0
    1.5757    3.5686   -0.3008 H   0  0  0  0  0  0  0  0  0  0  0  0
    2.4630    2.3719   -1.2603 H   0  0  0  0  0  0  0  0  0  0  0  0
    2.6963    2.4279    0.4728 H   0  0  0  0  0  0  0  0  0  0  0  0
  1  2  1  0  0  0  0
  2  3  1  0  0  0  0
  3  4  1  0  0  0  0
  3  5  1  0  0  0  0
  3  6  1  0  0  0  0
  6  7  1  0  0  0  0
  7  8  2  0  0  0  0
  7  9  1  0  0  0  0
  9 10  2  0  0  0  0
 10 11  1  0  0  0  0
  6 12  1  0  0  0  0
 11 12  1  0  0  0  0
 12 13  2  0  0  0  0
 10 14  1  0  0  0  0
  9 15  1  0  0  0  0
  1 16  1  0  0  0  0
  1 17  1  0  0  0  0
  1 18  1  0  0  0  0
  2 19  1  0  0  0  0
  2 20  1  0  0  0  0
  5 21  1  0  0  0  0
  5 22  1  0  0  0  0
  5 23  1  0  0  0  0
 11 24  1  0  0  0  0
 14 25  1  0  0  0  0
 14 26  1  0  0  0  0
 14 27  1  0  0  0  0
M  END
