 xtb: 6.7.1 (edcfbbe)
          04112510563D

 24 24  0     0  0            999 V2000
    3.4148    1.1934   -0.2623 C   0  0  0  0  0  0  0  0  0  0  0  0
    1.9565    0.8919   -0.5883 C   0  0  0  0  0  0  0  0  0  0  0  0
    1.2948   -0.0528    0.4274 C   0  0  0  0  0  0  0  0  0  0  0  0
    1.4850    0.3444    1.4310 H   0  0  0  0  0  0  0  0  0  0  0  0
    1.8698   -1.4696    0.3581 C   0  0  0  0  0  0  0  0  0  0  0  0
   -0.1990   -0.0805    0.2115 C   0  0  0  0  0  0  0  0  0  0  0  0
   -1.0624    0.3717    1.2014 C   0  0  0  0  0  0  0  0  0  0  0  0
   -2.4338    0.3531    1.0140 C   0  0  0  0  0  0  0  0  0  0  0  0
   -2.9651   -0.1197   -0.1730 C   0  0  0  0  0  0  0  0  0  0  0  0
   -2.1152   -0.5724   -1.1682 C   0  0  0  0  0  0  0  0  0  0  0  0
   -0.7456   -0.5524   -0.9766 C   0  0  0  0  0  0  0  0  0  0  0  0
    3.8112    1.9228   -0.9646 H   0  0  0  0  0  0  0  0  0  0  0  0
    3.5046    1.6012    0.7422 H   0  0  0  0  0  0  0  0  0  0  0  0
    4.0237    0.2958   -0.3266 H   0  0  0  0  0  0  0  0  0  0  0  0
    1.3939    1.8292   -0.6005 H   0  0  0  0  0  0  0  0  0  0  0  0
    1.8911    0.4559   -1.5867 H   0  0  0  0  0  0  0  0  0  0  0  0
    1.7899   -1.8706   -0.6490 H   0  0  0  0  0  0  0  0  0  0  0  0
    2.9161   -1.4736    0.6506 H   0  0  0  0  0  0  0  0  0  0  0  0
    1.3236   -2.1254    1.0328 H   0  0  0  0  0  0  0  0  0  0  0  0
   -0.6565    0.7429    2.1320 H   0  0  0  0  0  0  0  0  0  0  0  0
   -3.0881    0.7085    1.7965 H   0  0  0  0  0  0  0  0  0  0  0  0
   -4.0344   -0.1357   -0.3223 H   0  0  0  0  0  0  0  0  0  0  0  0
   -2.5219   -0.9427   -2.0979 H   0  0  0  0  0  0  0  0  0  0  0  0
   -0.0973   -0.9087   -1.7630 H   0  0  0  0  0  0  0  0  0  0  0  0
  1  2  1  0  0  0  0
  2  3  1  0  0  0  0
  3  4  1  0  0  0  0
  3  5  1  0  0  0  0
  3  6  1  0  0  0  0
  6  7  4  0  0  0  0
  7  8  4  0  0  0  0
  8  9  4  0  0  0  0
  9 10  4  0  0  0  0
  6 11  4  0  0  0  0
 10 11  4  0  0  0  0
  1 12  1  0  0  0  0
  1 13  1  0  0  0  0
  1 14  1  0  0  0  0
  2 15  1  0  0  0  0
  2 16  1  0  0  0  0
  5 17  1  0  0  0  0
  5 18  1  0  0  0  0
  5 19  1  0  0  0  0
  7 20  1  0  0  0  0
  8 21  1  0  0  0  0
  9 22  1  0  0  0  0
 10 23  1  0  0  0  0
 11 24  1  0  0  0  0
M  END
